# CIF file
# This file was generated by FINDSYM
# Harold T. Stokes, Branton J. Campbell, Dorian M. Hatch
# Brigham Young University, Provo, Utah, USA
 
data_findsym-output
_audit_creation_method FINDSYM
 
_symmetry_space_group_name_H-M "P 1 c 1"
_symmetry_Int_Tables_number 7
 
_cell_length_a    7.32273
_cell_length_b    7.32273
_cell_length_c    10.66204
_cell_angle_alpha 90.00000
_cell_angle_beta  133.37761
_cell_angle_gamma 90.00000
 
loop_
_space_group_symop_id
_space_group_symop_operation_xyz
1 x,y,z
2 x,-y,z+1/2
 
loop_
_atom_site_label
_atom_site_type_symbol
_atom_site_symmetry_multiplicity
_atom_site_Wyckoff_label
_atom_site_fract_x
_atom_site_fract_y
_atom_site_fract_z
_atom_site_occupancy
W1  W   2 a -0.03205 0.75000  0.71795  1.00000
W2  W   2 a 0.03200  0.25016  0.78205  1.00000
W3  W   2 a 0.53176  0.74984  0.78171  1.00000
W4  W   2 a 0.46829  0.75000  0.21829  1.00000
O1  O   2 a 0.25851  0.25395  0.00851  1.00000
O2  O   2 a 0.04261  0.01842  0.24202  1.00000
O3  O   2 a -0.04194 0.48005  0.75865  1.00000
O4  O   2 a 0.44076  -0.01995 0.24135  1.00000
O5  O   2 a 0.55857  0.51842  0.75798  1.00000
O6  O   2 a 0.73036  0.80060  0.24413  1.00000
O7  O   2 a 0.24210  0.30060  0.75587  1.00000
O8  O   2 a 0.75790  0.19942  0.24413  1.00000
O9  O   2 a 0.74149  0.24999  -0.00851 1.00000
O10 O   2 a 0.24185  0.24999  0.49185  1.00000
O11 O   2 a 0.75815  0.25395  0.50815  1.00000
O12 O   2 a 0.26964  0.69942  0.75587  1.00000
 
