# CIF file
# This file was generated by FINDSYM
# Harold T. Stokes, Branton J. Campbell, Dorian M. Hatch
# Brigham Young University, Provo, Utah, USA
 
data_findsym-output
_audit_creation_method FINDSYM
 
_symmetry_space_group_name_H-M "P n n 2"
_symmetry_Int_Tables_number 34
 
_cell_length_a    7.32273
_cell_length_b    7.32273
_cell_length_c    7.74963
_cell_angle_alpha 90.00000
_cell_angle_beta  90.00000
_cell_angle_gamma 90.00000
 
loop_
_space_group_symop_id
_space_group_symop_operation_xyz
1 x,y,z
2 -x,-y,z
3 -x+1/2,y+1/2,z+1/2
4 x+1/2,-y+1/2,z+1/2
 
loop_
_atom_site_label
_atom_site_type_symbol
_atom_site_symmetry_multiplicity
_atom_site_Wyckoff_label
_atom_site_fract_x
_atom_site_fract_y
_atom_site_fract_z
_atom_site_occupancy
W1 W   2 b 0.00000  0.50000  0.21812  1.00000
W2 W   2 a 0.00000  0.00000  0.28188  1.00000
W3 W   2 a 0.00000  0.00000  0.78188  1.00000
W4 W   2 b 0.00000  0.50000  0.71812  1.00000
O1 O   2 a 0.00000  0.00000  0.50833  1.00000
O2 O   4 c -0.05851 0.75342  0.24128  1.00000
O3 O   4 c 0.54267  0.75342  0.25872  1.00000
O4 O   4 c 0.20911  -0.05738 0.14579  1.00000
O5 O   4 c 0.20911  0.54380  0.35421  1.00000
O6 O   2 b 0.00000  0.50000  -0.00833 1.00000
O7 O   2 b 0.00000  0.50000  0.49167  1.00000
O8 O   2 a 0.00000  0.00000  0.00833  1.00000
 
