# CIF file
# This file was generated by FINDSYM
# Harold T. Stokes, Branton J. Campbell, Dorian M. Hatch
# Brigham Young University, Provo, Utah, USA
 
data_findsym-output
_audit_creation_method FINDSYM
 
_symmetry_space_group_name_H-M "P 1"
_symmetry_Int_Tables_number 1
 
_cell_length_a    5.17796
_cell_length_b    5.17796
_cell_length_c    7.74963
_cell_angle_alpha 90.00000
_cell_angle_beta  90.00000
_cell_angle_gamma 90.00000
 
loop_
_space_group_symop_id
_space_group_symop_operation_xyz
1 x,y,z
 
loop_
_atom_site_label
_atom_site_type_symbol
_atom_site_symmetry_multiplicity
_atom_site_Wyckoff_label
_atom_site_fract_x
_atom_site_fract_y
_atom_site_fract_z
_atom_site_occupancy
W1  W   1 a 0.25338  0.24892  0.21771  1.00000
W2  W   1 a 0.74663  0.75108  0.77987  1.00000
W3  W   1 a 0.74892  0.75337  0.28389  1.00000
W4  W   1 a 0.25108  0.24662  0.71853  1.00000
O1  O   1 a 0.25588  0.24499  0.49196  1.00000
O2  O   1 a 0.74414  0.75500  0.50978  1.00000
O3  O   1 a 0.74500  0.75586  0.00688  1.00000
O4  O   1 a 0.25501  0.24412  -0.00862 1.00000
O5  O   1 a 0.44759  0.54878  0.19737  1.00000
O6  O   1 a 0.55240  0.45123  0.80263  1.00000
O7  O   1 a 0.04879  -0.05241 0.30263  1.00000
O8  O   1 a -0.04877 0.05239  0.69737  1.00000
O9  O   1 a -0.04675 0.45325  0.24999  1.00000
O10 O   1 a 0.04731  0.54731  0.75002  1.00000
O11 O   1 a 0.55387  0.05387  0.24998  1.00000
O12 O   1 a 0.44557  -0.05443 0.75001  1.00000
 
