# CIF file
# This file was generated by FINDSYM
# Harold T. Stokes, Branton J. Campbell, Dorian M. Hatch
# Brigham Young University, Provo, Utah, USA
 
data_findsym-output
_audit_creation_method FINDSYM
 
_symmetry_space_group_name_H-M "P 1 21/c 1"
_symmetry_Int_Tables_number 14
 
_cell_length_a    7.43849
_cell_length_b    7.40361
_cell_length_c    10.56625
_cell_angle_alpha 90.00000
_cell_angle_beta  133.91267
_cell_angle_gamma 90.00000
 
loop_
_space_group_symop_id
_space_group_symop_operation_xyz
1 x,y,z
2 -x,y+1/2,-z+1/2
3 -x,-y,-z
4 x,-y+1/2,z+1/2
 
loop_
_atom_site_label
_atom_site_type_symbol
_atom_site_symmetry_multiplicity
_atom_site_Wyckoff_label
_atom_site_fract_x
_atom_site_fract_y
_atom_site_fract_z
_atom_site_occupancy
O1 O   4 e 0.27957  0.01898  0.00701  1.00000
O2 O   4 e 0.26530  0.47614  -0.00766 1.00000
O3 O   4 e 0.23113  -0.04324 0.22599  1.00000
O4 O   4 e 0.22116  0.54247  0.22573  1.00000
O5 O   4 e 0.47074  0.24574  0.26580  1.00000
O6 O   4 e 0.01599  0.25497  0.22449  1.00000
W1 W   4 e 0.54153  -0.01073 0.27549  1.00000
W2 W   4 e -0.01060 0.00889  0.22301  1.00000
 
