# CIF file
# This file was generated by FINDSYM
# Harold T. Stokes, Branton J. Campbell, Dorian M. Hatch
# Brigham Young University, Provo, Utah, USA
 
data_findsym-output
_audit_creation_method FINDSYM
 
_symmetry_space_group_name_H-M "P 1 21/c 1"
_symmetry_Int_Tables_number 14
 
_cell_length_a    7.35594
_cell_length_b    7.40099
_cell_length_c    10.56509
_cell_angle_alpha 90.00000
_cell_angle_beta  133.83124
_cell_angle_gamma 90.00000
 
loop_
_space_group_symop_id
_space_group_symop_operation_xyz
1 x,y,z
2 -x,y+1/2,-z+1/2
3 -x,-y,-z
4 x,-y+1/2,z+1/2
 
loop_
_atom_site_label
_atom_site_type_symbol
_atom_site_symmetry_multiplicity
_atom_site_Wyckoff_label
_atom_site_fract_x
_atom_site_fract_y
_atom_site_fract_z
_atom_site_occupancy
O1 O   4 e 0.71455  0.50291  -0.00744 1.00000
O2 O   4 e 0.72957  -0.01256 0.00771  1.00000
O3 O   4 e 0.77462  0.45750  0.77839  1.00000
O4 O   4 e 0.78214  0.04220  0.77861  1.00000
O5 O   4 e 0.54287  0.74373  0.74879  1.00000
O6 O   4 e -0.02878 0.75643  0.76360  1.00000
W1 W   4 e 0.45785  0.48500  0.72119  1.00000
W2 W   4 e 0.01604  0.51393  0.77944  1.00000
 
