#======================================================================

# CRYSTAL DATA

#----------------------------------------------------------------------

data_VESTA_phase_1


_chemical_name_common                  ''
_cell_length_a                         10.43680
_cell_length_b                         10.47520
_cell_length_c                         7.75736
_cell_angle_alpha                      90
_cell_angle_beta                       90
_cell_angle_gamma                      90
_space_group_name_H-M_alt              'P 1'
_space_group_IT_number                 1

loop_
_space_group_symop_operation_xyz
   'x, y, z'

loop_
   _atom_site_label
   _atom_site_occupancy
   _atom_site_fract_x
   _atom_site_fract_y
   _atom_site_fract_z
   _atom_site_adp_type
   _atom_site_B_iso_or_equiv
   _atom_site_type_symbol
   W1         1.0     0.140429      0.644143      0.773570     Biso  1.000000 W
   W2         1.0     0.144314      0.653049      0.282438     Biso  1.000000 W
   W3         1.0     0.156496      0.154521      0.774516     Biso  1.000000 W
   W4         1.0     0.158479      0.145676      0.283168     Biso  1.000000 W
   W5         1.0     0.393442      0.890986      0.715724     Biso  1.000000 W
   W6         1.0     0.395675      0.407559      0.226838     Biso  1.000000 W
   W7         1.0     0.403048      0.406767      0.717962     Biso  1.000000 W
   W8         1.0     0.403941      0.889328      0.224511     Biso  1.000000 W
   W9         1.0     0.641204      0.154371      0.282656     Biso  1.000000 W
   W10        1.0     0.641968      0.145968      0.774599     Biso  1.000000 W
   W11        1.0     0.652343      0.653830      0.774595     Biso  1.000000 W
   W12        1.0     0.658092      0.644368      0.282703     Biso  1.000000 W
   W13        1.0     0.891025      0.396133      0.716332     Biso  1.000000 W
   W14        1.0     0.894889      0.906561      0.226988     Biso  1.000000 W
   W15        1.0     0.901427      0.390657      0.225513     Biso  1.000000 W
   W16        1.0     0.902733      0.902272      0.717803     Biso  1.000000 W
   O1         1.0    -0.000582      0.749342      0.726394     Biso  1.000000 O
   O2         1.0    -0.001462      0.546711      0.232190     Biso  1.000000 O
   O3         1.0     0.000161      0.250411      0.768432     Biso  1.000000 O
   O4         1.0     0.001383      0.051196      0.273020     Biso  1.000000 O
   O5         1.0     0.044992      0.796433      0.284040     Biso  1.000000 O
   O6         1.0     0.045493      0.497168      0.779070     Biso  1.000000 O
   O7         1.0     0.050480      0.293901      0.220861     Biso  1.000000 O
   O8         1.0     0.051277      1.002310      0.714282     Biso  1.000000 O
   O9         1.0     0.144919      0.619758      0.507551     Biso  1.000000 O
   O10        1.0     0.149135      0.674809      0.007771     Biso  1.000000 O
   O11        1.0     0.151751      0.177797      0.508403     Biso  1.000000 O
   O12        1.0     0.154052      0.121647      0.008102     Biso  1.000000 O
   O13        1.0     0.248524      0.502553      0.223888     Biso  1.000000 O
   O14        1.0     0.249850      0.791336      0.711694     Biso  1.000000 O
   O15        1.0     0.254607      0.997209      0.287711     Biso  1.000000 O
   O16        1.0     0.254585      0.298884      0.777402     Biso  1.000000 O
   O17        1.0     0.296993      0.547487      0.763523     Biso  1.000000 O
   O18        1.0     0.298212      0.746740      0.276583     Biso  1.000000 O
   O19        1.0     0.299384      0.251381      0.235167     Biso  1.000000 O
   O20        1.0     0.299904      0.049516      0.722739     Biso  1.000000 O
   O21        1.0     0.369386      0.893537     -0.008584     Biso  1.000000 O
   O22        1.0     0.372707      0.400973      0.492000     Biso  1.000000 O
   O23        1.0     0.425661      0.401904     -0.007794     Biso  1.000000 O
   O24        1.0     0.428379      0.893261      0.491249     Biso  1.000000 O
   O25        1.0     0.498740      0.049226      0.232170     Biso  1.000000 O
   O26        1.0     0.499650      0.747690      0.768746     Biso  1.000000 O
   O27        1.0     0.499933      0.251968      0.726921     Biso  1.000000 O
   O28        1.0     0.500964      0.548113      0.273175     Biso  1.000000 O
   O29        1.0     0.543691      0.997987      0.778541     Biso  1.000000 O
   O30        1.0     0.544084      0.299376      0.285541     Biso  1.000000 O
   O31        1.0     0.548464      0.791469      0.219967     Biso  1.000000 O
   O32        1.0     0.549279      0.503496      0.714694     Biso  1.000000 O
   O33        1.0     0.645045      0.122612      0.507962     Biso  1.000000 O
   O34        1.0     0.647100      0.177919      0.008584     Biso  1.000000 O
   O35        1.0     0.649266      0.675756      0.508044     Biso  1.000000 O
   O36        1.0     0.652520      0.619733      0.008076     Biso  1.000000 O
   O37        1.0     0.747118      1.002790      0.223141     Biso  1.000000 O
   O38        1.0     0.748634      0.294665      0.713211     Biso  1.000000 O
   O39        1.0     0.752834      0.497697      0.288005     Biso  1.000000 O
   O40        1.0     0.752863      0.796791      0.776628     Biso  1.000000 O
   O41        1.0     0.796307      0.050230      0.765747     Biso  1.000000 O
   O42        1.0     0.796654      0.249284      0.275187     Biso  1.000000 O
   O43        1.0     0.797099      0.547700      0.722086     Biso  1.000000 O
   O44        1.0     0.798215      0.749287      0.236132     Biso  1.000000 O
   O45        1.0     0.868578      0.397689     -0.008070     Biso  1.000000 O
   O46        1.0     0.870950      0.899852      0.492008     Biso  1.000000 O
   O47        1.0     0.924242      0.898786     -0.007596     Biso  1.000000 O
   O48        1.0     0.926293      0.396034      0.491687     Biso  1.000000 O
