#======================================================================

# CRYSTAL DATA

#----------------------------------------------------------------------

data_VESTA_phase_1


_chemical_name_common                  ''
_cell_length_a                         10.47840
_cell_length_b                         10.48200
_cell_length_c                         7.75497
_cell_angle_alpha                      90
_cell_angle_beta                       90
_cell_angle_gamma                      90
_space_group_name_H-M_alt              'P 1'
_space_group_IT_number                 1

loop_
_space_group_symop_operation_xyz
   'x, y, z'

loop_
   _atom_site_label
   _atom_site_occupancy
   _atom_site_fract_x
   _atom_site_fract_y
   _atom_site_fract_z
   _atom_site_adp_type
   _atom_site_B_iso_or_equiv
   _atom_site_type_symbol
   W1         1.0     0.141653      0.892852      0.717613     Biso  1.000000 W
   W2         1.0     0.147172      0.407686      0.225950     Biso  1.000000 W
   W3         1.0     0.152078      0.884667      0.226915     Biso  1.000000 W
   W4         1.0     0.157366      0.399903      0.716713     Biso  1.000000 W
   W5         1.0     0.388684      0.152943      0.282371     Biso  1.000000 W
   W6         1.0     0.396121      0.142364      0.774606     Biso  1.000000 W
   W7         1.0     0.400529      0.654292      0.774825     Biso  1.000000 W
   W8         1.0     0.407533      0.643767      0.282558     Biso  1.000000 W
   W9         1.0     0.639474      0.395471      0.716866     Biso  1.000000 W
   W10        1.0     0.642756      0.904727      0.225229     Biso  1.000000 W
   W11        1.0     0.650251      0.389627      0.225946     Biso  1.000000 W
   W12        1.0     0.653482      0.898426      0.716015     Biso  1.000000 W
   W13        1.0     0.886366      0.652003      0.281689     Biso  1.000000 W
   W14        1.0     0.891368      0.640579      0.773382     Biso  1.000000 W
   W15        1.0     0.899145      0.157205      0.774506     Biso  1.000000 W
   W16        1.0     0.903418      0.146705      0.282358     Biso  1.000000 W
   O1         1.0    -0.003370      0.791209      0.716271     Biso  1.000000 O
   O2         1.0    -0.002590      0.502792      0.220687     Biso  1.000000 O
   O3         1.0     0.002441      0.997869      0.286910     Biso  1.000000 O
   O4         1.0     0.002406      0.299490      0.777129     Biso  1.000000 O
   O5         1.0     0.047883      0.744744      0.271516     Biso  1.000000 O
   O6         1.0     0.048829      0.049463      0.722962     Biso  1.000000 O
   O7         1.0     0.049477      0.544947      0.769528     Biso  1.000000 O
   O8         1.0     0.051414      0.250941      0.236765     Biso  1.000000 O
   O9         1.0     0.122328      0.894630     -0.007405     Biso  1.000000 O
   O10        1.0     0.122747      0.401988      0.491798     Biso  1.000000 O
   O11        1.0     0.175530      0.890639      0.492367     Biso  1.000000 O
   O12        1.0     0.177746      0.398349     -0.008000     Biso  1.000000 O
   O13        1.0     0.248884      0.048135      0.237924     Biso  1.000000 O
   O14        1.0     0.249563      0.747606      0.768995     Biso  1.000000 O
   O15        1.0     0.250644      0.249278      0.721710     Biso  1.000000 O
   O16        1.0     0.251156      0.548178      0.272084     Biso  1.000000 O
   O17        1.0     0.294101      0.997168      0.775249     Biso  1.000000 O
   O18        1.0     0.294387      0.299550      0.287748     Biso  1.000000 O
   O19        1.0     0.298713      0.502429      0.715799     Biso  1.000000 O
   O20        1.0     0.299254      0.791363      0.221949     Biso  1.000000 O
   O21        1.0     0.393428      0.176719      0.007988     Biso  1.000000 O
   O22        1.0     0.398831      0.122410      0.507973     Biso  1.000000 O
   O23        1.0     0.399016      0.674302      0.508150     Biso  1.000000 O
   O24        1.0     0.401798      0.620319      0.008432     Biso  1.000000 O
   O25        1.0     0.496995      0.294212      0.716229     Biso  1.000000 O
   O26        1.0     0.497383      1.003020      0.219769     Biso  1.000000 O
   O27        1.0     0.502136      0.796428      0.775977     Biso  1.000000 O
   O28        1.0     0.502487      0.497934      0.286770     Biso  1.000000 O
   O29        1.0     0.545256      0.249358      0.270724     Biso  1.000000 O
   O30        1.0     0.545333      0.546523      0.723285     Biso  1.000000 O
   O31        1.0     0.547025      0.049205      0.769861     Biso  1.000000 O
   O32        1.0     0.547867      0.748721      0.235893     Biso  1.000000 O
   O33        1.0     0.618416      0.899883      0.491314     Biso  1.000000 O
   O34        1.0     0.620175      0.398130     -0.008339     Biso  1.000000 O
   O35        1.0     0.672733      0.394797      0.491501     Biso  1.000000 O
   O36        1.0     0.674652      0.896471     -0.008432     Biso  1.000000 O
   O37        1.0     0.746113      0.546065      0.236710     Biso  1.000000 O
   O38        1.0     0.746498      0.747071      0.721135     Biso  1.000000 O
   O39        1.0     0.747182      0.251066      0.766995     Biso  1.000000 O
   O40        1.0     0.748032      0.051968      0.273369     Biso  1.000000 O
   O41        1.0     0.790798      0.797676      0.287249     Biso  1.000000 O
   O42        1.0     0.790925      0.497912      0.774477     Biso  1.000000 O
   O43        1.0     0.795598      1.003110      0.714230     Biso  1.000000 O
   O44        1.0     0.796862      0.295261      0.221808     Biso  1.000000 O
   O45        1.0     0.889953      0.674474      0.007025     Biso  1.000000 O
   O46        1.0     0.895031      0.620510      0.507304     Biso  1.000000 O
   O47        1.0     0.897565      0.178377      0.507788     Biso  1.000000 O
   O48        1.0     0.897856      0.123538      0.008165     Biso  1.000000 O
