#======================================================================

# CRYSTAL DATA

#----------------------------------------------------------------------

data_VESTA_phase_1


_chemical_name_common                  ''
_cell_length_a                         10.42940
_cell_length_b                         10.47900
_cell_length_c                         7.75538
_cell_angle_alpha                      90
_cell_angle_beta                       90
_cell_angle_gamma                      90
_space_group_name_H-M_alt              'P 1'
_space_group_IT_number                 1

loop_
_space_group_symop_operation_xyz
   'x, y, z'

loop_
   _atom_site_label
   _atom_site_occupancy
   _atom_site_fract_x
   _atom_site_fract_y
   _atom_site_fract_z
   _atom_site_adp_type
   _atom_site_B_iso_or_equiv
   _atom_site_type_symbol
   W1         1.0     0.140457      0.152705      0.282409     Biso  1.000000 W
   W2         1.0     0.147928      0.142123      0.774618     Biso  1.000000 W
   W3         1.0     0.152357      0.654194      0.774837     Biso  1.000000 W
   W4         1.0     0.159393      0.643666      0.282596     Biso  1.000000 W
   W5         1.0     0.392423      0.395300      0.716881     Biso  1.000000 W
   W6         1.0     0.395721      0.904700      0.225270     Biso  1.000000 W
   W7         1.0     0.403251      0.389455      0.225987     Biso  1.000000 W
   W8         1.0     0.406498      0.898398      0.716030     Biso  1.000000 W
   W9         1.0     0.640474      0.651904      0.281727     Biso  1.000000 W
   W10        1.0     0.645500      0.640477      0.773394     Biso  1.000000 W
   W11        1.0     0.653314      0.156967      0.774518     Biso  1.000000 W
   W12        1.0     0.657607      0.146464      0.282396     Biso  1.000000 W
   W13        1.0     0.892236      0.891269      0.717074     Biso  1.000000 W
   W14        1.0     0.893912      0.406600      0.225942     Biso  1.000000 W
   W15        1.0     0.903520      0.888884      0.225684     Biso  1.000000 W
   W16        1.0     0.904892      0.403265      0.717027     Biso  1.000000 W
   O1         1.0     0.000000      0.048757      0.236776     Biso  1.000000 O
   O2         1.0     0.000250      0.747887      0.767226     Biso  1.000000 O
   O3         1.0     0.000281      0.249942      0.722529     Biso  1.000000 O
   O4         1.0     0.000897      0.548428      0.274362     Biso  1.000000 O
   O5         1.0     0.045430      0.997026      0.775260     Biso  1.000000 O
   O6         1.0     0.045717      0.299352      0.287786     Biso  1.000000 O
   O7         1.0     0.050063      0.502289      0.715814     Biso  1.000000 O
   O8         1.0     0.050607      0.791304      0.221990     Biso  1.000000 O
   O9         1.0     0.145222      0.176487      0.008014     Biso  1.000000 O
   O10        1.0     0.150650      0.122163      0.507999     Biso  1.000000 O
   O11        1.0     0.150837      0.674210      0.508177     Biso  1.000000 O
   O12        1.0     0.153631      0.620212      0.008458     Biso  1.000000 O
   O13        1.0     0.249276      0.294013      0.716244     Biso  1.000000 O
   O14        1.0     0.249666      1.002880      0.219810     Biso  1.000000 O
   O15        1.0     0.254441      0.796371      0.775989     Biso  1.000000 O
   O16        1.0     0.254794      0.497792      0.286808     Biso  1.000000 O
   O17        1.0     0.297764      0.249146      0.270763     Biso  1.000000 O
   O18        1.0     0.297841      0.546395      0.723299     Biso  1.000000 O
   O19        1.0     0.299540      0.048937      0.769873     Biso  1.000000 O
   O20        1.0     0.300387      0.748650      0.235934     Biso  1.000000 O
   O21        1.0     0.371266      0.899855      0.491341     Biso  1.000000 O
   O22        1.0     0.373034      0.397960     -0.008312     Biso  1.000000 O
   O23        1.0     0.425839      0.394627      0.491528     Biso  1.000000 O
   O24        1.0     0.427766      0.896441     -0.008405     Biso  1.000000 O
   O25        1.0     0.499563      0.545937      0.236750     Biso  1.000000 O
   O26        1.0     0.499950      0.747000      0.721150     Biso  1.000000 O
   O27        1.0     0.500637      0.250854      0.767008     Biso  1.000000 O
   O28        1.0     0.501491      0.051701      0.273407     Biso  1.000000 O
   O29        1.0     0.544458      0.797619      0.287287     Biso  1.000000 O
   O30        1.0     0.544586      0.497770      0.774489     Biso  1.000000 O
   O31        1.0     0.549281      1.002970      0.714245     Biso  1.000000 O
   O32        1.0     0.550551      0.295062      0.221849     Biso  1.000000 O
   O33        1.0     0.644079      0.674383      0.007052     Biso  1.000000 O
   O34        1.0     0.649180      0.620403      0.507330     Biso  1.000000 O
   O35        1.0     0.651726      0.178146      0.507814     Biso  1.000000 O
   O36        1.0     0.652018      0.123291      0.008191     Biso  1.000000 O
   O37        1.0     0.747870      0.791909      0.715429     Biso  1.000000 O
   O38        1.0     0.749046      0.503731      0.220326     Biso  1.000000 O
   O39        1.0     0.753801      0.300201      0.777920     Biso  1.000000 O
   O40        1.0     0.754268      0.998710      0.285936     Biso  1.000000 O
   O41        1.0     0.796790      0.747627      0.270853     Biso  1.000000 O
   O42        1.0     0.797745      0.049723      0.724614     Biso  1.000000 O
   O43        1.0     0.797999      0.547212      0.768960     Biso  1.000000 O
   O44        1.0     0.799597      0.251846      0.233952     Biso  1.000000 O
   O45        1.0     0.870021      0.402066      0.492153     Biso  1.000000 O
   O46        1.0     0.872287      0.894873     -0.008458     Biso  1.000000 O
   O47        1.0     0.924821      0.893155      0.491531     Biso  1.000000 O
   O48        1.0     0.927582      0.401207     -0.007562     Biso  1.000000 O
