#======================================================================

# CRYSTAL DATA

#----------------------------------------------------------------------

data_VESTA_phase_1


_chemical_name_common                  ''
_cell_length_a                         10.46420
_cell_length_b                         10.47160
_cell_length_c                         7.75698
_cell_angle_alpha                      90
_cell_angle_beta                       90
_cell_angle_gamma                      90
_space_group_name_H-M_alt              'P 1'
_space_group_IT_number                 1

loop_
_space_group_symop_operation_xyz
   'x, y, z'

loop_
   _atom_site_label
   _atom_site_occupancy
   _atom_site_fract_x
   _atom_site_fract_y
   _atom_site_fract_z
   _atom_site_adp_type
   _atom_site_B_iso_or_equiv
   _atom_site_type_symbol
   W1         1.0     0.142672      0.394070      0.716733     Biso  1.000000 W
   W2         1.0     0.145959      0.903832      0.225223     Biso  1.000000 W
   W3         1.0     0.153463      0.388220      0.225940     Biso  1.000000 W
   W4         1.0     0.156699      0.897525      0.715882     Biso  1.000000 W
   W5         1.0     0.389899      0.650857      0.281668     Biso  1.000000 W
   W6         1.0     0.394908      0.639421      0.773234     Biso  1.000000 W
   W7         1.0     0.402696      0.155567      0.774358     Biso  1.000000 W
   W8         1.0     0.406975      0.145056      0.282338     Biso  1.000000 W
   W9         1.0     0.640825      0.890391      0.716926     Biso  1.000000 W
   W10        1.0     0.642495      0.405378      0.225895     Biso  1.000000 W
   W11        1.0     0.652071      0.888005      0.225638     Biso  1.000000 W
   W12        1.0     0.653439      0.402040      0.716879     Biso  1.000000 W
   W13        1.0     0.889958      0.154973      0.282925     Biso  1.000000 W
   W14        1.0     0.890905      0.143698      0.774173     Biso  1.000000 W
   W15        1.0     0.901696      0.652445      0.774803     Biso  1.000000 W
   W16        1.0     0.901730      0.641505      0.283238     Biso  1.000000 W
   O1         1.0    -0.002985      0.293538      0.715328     Biso  1.000000 O
   O2         1.0    -0.001982      1.002170      0.220126     Biso  1.000000 O
   O3         1.0     0.002574      0.796145      0.777303     Biso  1.000000 O
   O4         1.0     0.002698      0.497099      0.286147     Biso  1.000000 O
   O5         1.0     0.048326      0.247811      0.270707     Biso  1.000000 O
   O6         1.0     0.048404      0.545272      0.723150     Biso  1.000000 O
   O7         1.0     0.050097      0.047460      0.769714     Biso  1.000000 O
   O8         1.0     0.050941      0.747671      0.235885     Biso  1.000000 O
   O9         1.0     0.121585      0.898984      0.491240     Biso  1.000000 O
   O10        1.0     0.123347      0.396731     -0.008414     Biso  1.000000 O
   O11        1.0     0.175977      0.393395      0.491426     Biso  1.000000 O
   O12        1.0     0.177898      0.895568     -0.008507     Biso  1.000000 O
   O13        1.0     0.249456      0.544814      0.236701     Biso  1.000000 O
   O14        1.0     0.249842      0.746020      0.721000     Biso  1.000000 O
   O15        1.0     0.250526      0.249521      0.766849     Biso  1.000000 O
   O16        1.0     0.251378      0.050226      0.273351     Biso  1.000000 O
   O17        1.0     0.294202      0.796675      0.287227     Biso  1.000000 O
   O18        1.0     0.294329      0.496613      0.774329     Biso  1.000000 O
   O19        1.0     0.299008      1.001820      0.714097     Biso  1.000000 O
   O20        1.0     0.300274      0.293760      0.221804     Biso  1.000000 O
   O21        1.0     0.393491      0.673351      0.006947     Biso  1.000000 O
   O22        1.0     0.398576      0.619333      0.507225     Biso  1.000000 O
   O23        1.0     0.401114      0.176760      0.507709     Biso  1.000000 O
   O24        1.0     0.401404      0.121867      0.008086     Biso  1.000000 O
   O25        1.0     0.496938      0.790961      0.715281     Biso  1.000000 O
   O26        1.0     0.498110      0.502578      0.220280     Biso  1.000000 O
   O27        1.0     0.502849      0.298903      0.777759     Biso  1.000000 O
   O28        1.0     0.503315      0.997553      0.285877     Biso  1.000000 O
   O29        1.0     0.545696      0.746648      0.270797     Biso  1.000000 O
   O30        1.0     0.546647      0.048246      0.724464     Biso  1.000000 O
   O31        1.0     0.546900      0.546090      0.768801     Biso  1.000000 O
   O32        1.0     0.548493      0.250513      0.233903     Biso  1.000000 O
   O33        1.0     0.618683      0.400840      0.492051     Biso  1.000000 O
   O34        1.0     0.620942      0.893998     -0.008560     Biso  1.000000 O
   O35        1.0     0.673301      0.892279      0.491429     Biso  1.000000 O
   O36        1.0     0.676053      0.399981     -0.007664     Biso  1.000000 O
   O37        1.0     0.747029      0.249483      0.723185     Biso  1.000000 O
   O38        1.0     0.747743      0.547685      0.276545     Biso  1.000000 O
   O39        1.0     0.748050      0.747259      0.765287     Biso  1.000000 O
   O40        1.0     0.748231      0.048170      0.235539     Biso  1.000000 O
   O41        1.0     0.791750      0.997380      0.775921     Biso  1.000000 O
   O42        1.0     0.792093      0.299528      0.287500     Biso  1.000000 O
   O43        1.0     0.796044      0.502563      0.713353     Biso  1.000000 O
   O44        1.0     0.797777      0.791625      0.222759     Biso  1.000000 O
   O45        1.0     0.892508      0.177002      0.007770     Biso  1.000000 O
   O46        1.0     0.895685      0.122058      0.508122     Biso  1.000000 O
   O47        1.0     0.896934      0.619403      0.008560     Biso  1.000000 O
   O48        1.0     0.899454      0.674782      0.508148     Biso  1.000000 O
