#======================================================================

# CRYSTAL DATA

#----------------------------------------------------------------------

data_VESTA_phase_1


_chemical_name_common                  ''
_cell_length_a                         10.42450
_cell_length_b                         10.47160
_cell_length_c                         7.75836
_cell_angle_alpha                      90
_cell_angle_beta                       90
_cell_angle_gamma                      90
_space_group_name_H-M_alt              'P 1'
_space_group_IT_number                 1

loop_
_space_group_symop_operation_xyz
   'x, y, z'

loop_
   _atom_site_label
   _atom_site_occupancy
   _atom_site_fract_x
   _atom_site_fract_y
   _atom_site_fract_z
   _atom_site_adp_type
   _atom_site_B_iso_or_equiv
   _atom_site_type_symbol
   W1         1.0     0.140978      0.650857      0.281796     Biso  1.000000 W
   W2         1.0     0.146006      0.639421      0.773275     Biso  1.000000 W
   W3         1.0     0.153824      0.155567      0.774398     Biso  1.000000 W
   W4         1.0     0.158119      0.145056      0.282465     Biso  1.000000 W
   W5         1.0     0.392860      0.890391      0.716976     Biso  1.000000 W
   W6         1.0     0.394536      0.405378      0.226033     Biso  1.000000 W
   W7         1.0     0.404149      0.888005      0.225775     Biso  1.000000 W
   W8         1.0     0.405522      0.402040      0.716929     Biso  1.000000 W
   W9         1.0     0.642942      0.154973      0.283052     Biso  1.000000 W
   W10        1.0     0.643893      0.143698      0.774213     Biso  1.000000 W
   W11        1.0     0.654724      0.652445      0.774843     Biso  1.000000 W
   W12        1.0     0.654758      0.641505      0.283366     Biso  1.000000 W
   W13        1.0     0.891939      0.900152      0.224360     Biso  1.000000 W
   W14        1.0     0.893223      0.391331      0.717739     Biso  1.000000 W
   W15        1.0     0.903379      0.902054      0.715923     Biso  1.000000 W
   W16        1.0     0.904637      0.393081      0.226129     Biso  1.000000 W
   O1         1.0    -0.000322      0.545618      0.235600     Biso  1.000000 O
   O2         1.0    -0.001039      0.746924      0.722363     Biso  1.000000 O
   O3         1.0     0.000537      0.249638      0.765273     Biso  1.000000 O
   O4         1.0     0.000481      0.049918      0.275309     Biso  1.000000 O
   O5         1.0     0.044916      0.796675      0.287354     Biso  1.000000 O
   O6         1.0     0.045044      0.496613      0.774369     Biso  1.000000 O
   O7         1.0     0.049741      1.001820      0.714148     Biso  1.000000 O
   O8         1.0     0.051012      0.293760      0.221942     Biso  1.000000 O
   O9         1.0     0.144584      0.673351      0.007034     Biso  1.000000 O
   O10        1.0     0.149688      0.619333      0.507312     Biso  1.000000 O
   O11        1.0     0.152235      0.176760      0.507797     Biso  1.000000 O
   O12        1.0     0.152527      0.121867      0.008173     Biso  1.000000 O
   O13        1.0     0.248425      0.790961      0.715332     Biso  1.000000 O
   O14        1.0     0.249601      0.502578      0.220418     Biso  1.000000 O
   O15        1.0     0.254358      0.298903      0.777799     Biso  1.000000 O
   O16        1.0     0.254826      0.997553      0.286003     Biso  1.000000 O
   O17        1.0     0.297368      0.746648      0.270926     Biso  1.000000 O
   O18        1.0     0.298323      0.048246      0.724512     Biso  1.000000 O
   O19        1.0     0.298577      0.546090      0.768842     Biso  1.000000 O
   O20        1.0     0.300176      0.250513      0.234039     Biso  1.000000 O
   O21        1.0     0.370633      0.400840      0.492142     Biso  1.000000 O
   O22        1.0     0.372901      0.893998     -0.008470     Biso  1.000000 O
   O23        1.0     0.425460      0.892279      0.491520     Biso  1.000000 O
   O24        1.0     0.428222      0.399981     -0.007574     Biso  1.000000 O
   O25        1.0     0.499468      0.249483      0.723234     Biso  1.000000 O
   O26        1.0     0.500185      0.547685      0.276673     Biso  1.000000 O
   O27        1.0     0.500493      0.747259      0.765328     Biso  1.000000 O
   O28        1.0     0.500674      0.048170      0.235675     Biso  1.000000 O
   O29        1.0     0.544360      0.997380      0.775960     Biso  1.000000 O
   O30        1.0     0.544704      0.299528      0.287627     Biso  1.000000 O
   O31        1.0     0.548670      0.502563      0.713404     Biso  1.000000 O
   O32        1.0     0.550410      0.791625      0.222897     Biso  1.000000 O
   O33        1.0     0.645502      0.177002      0.007858     Biso  1.000000 O
   O34        1.0     0.648691      0.122058      0.508209     Biso  1.000000 O
   O35        1.0     0.649944      0.619403      0.008647     Biso  1.000000 O
   O36        1.0     0.652474      0.674782      0.508235     Biso  1.000000 O
   O37        1.0     0.747411      0.294366      0.714612     Biso  1.000000 O
   O38        1.0     0.749033      1.002620      0.220626     Biso  1.000000 O
   O39        1.0     0.753299      0.497564      0.285671     Biso  1.000000 O
   O40        1.0     0.753403      0.796864      0.778817     Biso  1.000000 O
   O41        1.0     0.797530      0.545804      0.726760     Biso  1.000000 O
   O42        1.0     0.797594      0.249905      0.273322     Biso  1.000000 O
   O43        1.0     0.797969      0.049833      0.767660     Biso  1.000000 O
   O44        1.0     0.798645      0.747056      0.231640     Biso  1.000000 O
   O45        1.0     0.868907      0.897722      0.491343     Biso  1.000000 O
   O46        1.0     0.872104      0.395921     -0.007993     Biso  1.000000 O
   O47        1.0     0.924881      0.396445      0.492023     Biso  1.000000 O
   O48        1.0     0.927494      0.898126     -0.008647     Biso  1.000000 O
