#======================================================================

# CRYSTAL DATA

#----------------------------------------------------------------------

data_VESTA_phase_1


_chemical_name_common                  ''
_cell_length_a                         10.46830
_cell_length_b                         10.47610
_cell_length_c                         7.75836
_cell_angle_alpha                      90
_cell_angle_beta                       90
_cell_angle_gamma                      90
_space_group_name_H-M_alt              'P 1'
_space_group_IT_number                 1

loop_
_space_group_symop_operation_xyz
   'x, y, z'

loop_
   _atom_site_label
   _atom_site_occupancy
   _atom_site_fract_x
   _atom_site_fract_y
   _atom_site_fract_z
   _atom_site_adp_type
   _atom_site_B_iso_or_equiv
   _atom_site_type_symbol
   W1         1.0     0.143831      0.890004      0.716976     Biso  1.000000 W
   W2         1.0     0.145500      0.405201      0.226033     Biso  1.000000 W
   W3         1.0     0.155072      0.887618      0.225775     Biso  1.000000 W
   W4         1.0     0.156439      0.401865      0.716929     Biso  1.000000 W
   W5         1.0     0.392867      0.154906      0.283052     Biso  1.000000 W
   W6         1.0     0.393813      0.143636      0.774213     Biso  1.000000 W
   W7         1.0     0.404600      0.652161      0.774843     Biso  1.000000 W
   W8         1.0     0.404633      0.641226      0.283366     Biso  1.000000 W
   W9         1.0     0.640823      0.899760      0.224360     Biso  1.000000 W
   W10        1.0     0.642101      0.391160      0.717739     Biso  1.000000 W
   W11        1.0     0.652214      0.901661      0.715923     Biso  1.000000 W
   W12        1.0     0.653467      0.392910      0.226129     Biso  1.000000 W
   W13        1.0     0.888057      0.642720      0.774175     Biso  1.000000 W
   W14        1.0     0.891249      0.653564      0.283296     Biso  1.000000 W
   W15        1.0     0.899276      0.142931      0.282650     Biso  1.000000 W
   W16        1.0     0.904090      0.154287      0.773469     Biso  1.000000 W
   O1         1.0    -0.003182      0.791361      0.714830     Biso  1.000000 O
   O2         1.0    -0.001957      0.502491      0.221133     Biso  1.000000 O
   O3         1.0     0.002794      0.299551      0.778277     Biso  1.000000 O
   O4         1.0     0.003001      0.997434      0.285349     Biso  1.000000 O
   O5         1.0     0.048738      0.746322      0.270926     Biso  1.000000 O
   O6         1.0     0.049690      0.048225      0.724512     Biso  1.000000 O
   O7         1.0     0.049943      0.545852      0.768842     Biso  1.000000 O
   O8         1.0     0.051535      0.250404      0.234039     Biso  1.000000 O
   O9         1.0     0.121697      0.400665      0.492142     Biso  1.000000 O
   O10        1.0     0.123955      0.893608     -0.008470     Biso  1.000000 O
   O11        1.0     0.176294      0.891891      0.491520     Biso  1.000000 O
   O12        1.0     0.179045      0.399806     -0.007574     Biso  1.000000 O
   O13        1.0     0.249993      0.249374      0.723234     Biso  1.000000 O
   O14        1.0     0.250707      0.547446      0.276673     Biso  1.000000 O
   O15        1.0     0.251014      0.746934      0.765328     Biso  1.000000 O
   O16        1.0     0.251194      0.048149      0.235675     Biso  1.000000 O
   O17        1.0     0.294697      0.997164      0.775960     Biso  1.000000 O
   O18        1.0     0.295039      0.299397      0.287627     Biso  1.000000 O
   O19        1.0     0.298989      0.502344      0.713404     Biso  1.000000 O
   O20        1.0     0.300721      0.791280      0.222897     Biso  1.000000 O
   O21        1.0     0.395416      0.176925      0.007858     Biso  1.000000 O
   O22        1.0     0.398592      0.122005      0.508209     Biso  1.000000 O
   O23        1.0     0.399840      0.619134      0.008647     Biso  1.000000 O
   O24        1.0     0.402359      0.674488      0.508235     Biso  1.000000 O
   O25        1.0     0.496898      0.294238      0.714612     Biso  1.000000 O
   O26        1.0     0.498514      1.002400      0.220626     Biso  1.000000 O
   O27        1.0     0.502762      0.497348      0.285671     Biso  1.000000 O
   O28        1.0     0.502865      0.796517      0.778817     Biso  1.000000 O
   O29        1.0     0.546808      0.545566      0.726760     Biso  1.000000 O
   O30        1.0     0.546872      0.249796      0.273322     Biso  1.000000 O
   O31        1.0     0.547245      0.049812      0.767660     Biso  1.000000 O
   O32        1.0     0.547918      0.746731      0.231640     Biso  1.000000 O
   O33        1.0     0.617886      0.897331      0.491343     Biso  1.000000 O
   O34        1.0     0.621070      0.395749     -0.007993     Biso  1.000000 O
   O35        1.0     0.673626      0.396272      0.492023     Biso  1.000000 O
   O36        1.0     0.676228      0.897735     -0.008647     Biso  1.000000 O
   O37        1.0     0.745975      0.747503      0.723675     Biso  1.000000 O
   O38        1.0     0.747469      0.049589      0.277137     Biso  1.000000 O
   O39        1.0     0.747790      0.546184      0.234363     Biso  1.000000 O
   O40        1.0     0.748431      0.249647      0.763657     Biso  1.000000 O
   O41        1.0     0.791498      0.796931      0.287057     Biso  1.000000 O
   O42        1.0     0.791613      0.497775      0.777225     Biso  1.000000 O
   O43        1.0     0.796230      1.002840      0.711297     Biso  1.000000 O
   O44        1.0     0.797834      0.294457      0.223498     Biso  1.000000 O
   O45        1.0     0.892364      0.674983      0.008002     Biso  1.000000 O
   O46        1.0     0.894159      0.619747      0.508330     Biso  1.000000 O
   O47        1.0     0.896298      0.122403      0.007650     Biso  1.000000 O
   O48        1.0     0.900028      0.177465      0.507411     Biso  1.000000 O
