#======================================================================

# CRYSTAL DATA

#----------------------------------------------------------------------

data_VESTA_phase_1


_chemical_name_common                  ''
_cell_length_a                         10.42300
_cell_length_b                         10.47610
_cell_length_c                         7.75836
_cell_angle_alpha                      90
_cell_angle_beta                       90
_cell_angle_gamma                      90
_space_group_name_H-M_alt              'P 1'
_space_group_IT_number                 1

loop_
_space_group_symop_operation_xyz
   'x, y, z'

loop_
   _atom_site_label
   _atom_site_occupancy
   _atom_site_fract_x
   _atom_site_fract_y
   _atom_site_fract_z
   _atom_site_adp_type
   _atom_site_B_iso_or_equiv
   _atom_site_type_symbol
   W1         1.0     0.143495      0.154906      0.283052     Biso  1.000000 W
   W2         1.0     0.144445      0.143636      0.774213     Biso  1.000000 W
   W3         1.0     0.155279      0.652161      0.774843     Biso  1.000000 W
   W4         1.0     0.155312      0.641226      0.283366     Biso  1.000000 W
   W5         1.0     0.392528      0.899760      0.224360     Biso  1.000000 W
   W6         1.0     0.393812      0.391160      0.717739     Biso  1.000000 W
   W7         1.0     0.403969      0.901661      0.715923     Biso  1.000000 W
   W8         1.0     0.405227      0.392910      0.226129     Biso  1.000000 W
   W9         1.0     0.640836      0.642720      0.774175     Biso  1.000000 W
   W10        1.0     0.644042      0.653564      0.283296     Biso  1.000000 W
   W11        1.0     0.652104      0.142931      0.282650     Biso  1.000000 W
   W12        1.0     0.656939      0.154287      0.773469     Biso  1.000000 W
   W13        1.0     0.890460      0.400941      0.224601     Biso  1.000000 W
   W14        1.0     0.894221      0.886635      0.718084     Biso  1.000000 W
   W15        1.0     0.901692      0.407460      0.716704     Biso  1.000000 W
   W16        1.0     0.904714      0.892485      0.226139     Biso  1.000000 W
   O1         1.0    -0.001415      0.250604      0.724709     Biso  1.000000 O
   O2         1.0    -0.000728      0.546832      0.277578     Biso  1.000000 O
   O3         1.0     0.000464      0.746808      0.764074     Biso  1.000000 O
   O4         1.0     0.000603      0.048892      0.234369     Biso  1.000000 O
   O5         1.0     0.044899      0.997164      0.775960     Biso  1.000000 O
   O6         1.0     0.045242      0.299397      0.287627     Biso  1.000000 O
   O7         1.0     0.049209      0.502344      0.713404     Biso  1.000000 O
   O8         1.0     0.050949      0.791280      0.222897     Biso  1.000000 O
   O9         1.0     0.146055      0.176925      0.007858     Biso  1.000000 O
   O10        1.0     0.149244      0.122005      0.508209     Biso  1.000000 O
   O11        1.0     0.150498      0.619134      0.008647     Biso  1.000000 O
   O12        1.0     0.153028      0.674488      0.508235     Biso  1.000000 O
   O13        1.0     0.247978      0.294238      0.714612     Biso  1.000000 O
   O14        1.0     0.249601      1.002400      0.220626     Biso  1.000000 O
   O15        1.0     0.253867      0.497348      0.285671     Biso  1.000000 O
   O16        1.0     0.253971      0.796517      0.778817     Biso  1.000000 O
   O17        1.0     0.298105      0.545566      0.726760     Biso  1.000000 O
   O18        1.0     0.298169      0.249796      0.273322     Biso  1.000000 O
   O19        1.0     0.298544      0.049812      0.767660     Biso  1.000000 O
   O20        1.0     0.299220      0.746731      0.231640     Biso  1.000000 O
   O21        1.0     0.369492      0.897331      0.491343     Biso  1.000000 O
   O22        1.0     0.372689      0.395749     -0.007993     Biso  1.000000 O
   O23        1.0     0.425474      0.396272      0.492023     Biso  1.000000 O
   O24        1.0     0.428087      0.897735     -0.008647     Biso  1.000000 O
   O25        1.0     0.498137      0.747503      0.723675     Biso  1.000000 O
   O26        1.0     0.499637      0.049589      0.277137     Biso  1.000000 O
   O27        1.0     0.499960      0.546184      0.234363     Biso  1.000000 O
   O28        1.0     0.500604      0.249647      0.763657     Biso  1.000000 O
   O29        1.0     0.543858      0.796931      0.287057     Biso  1.000000 O
   O30        1.0     0.543973      0.497775      0.777225     Biso  1.000000 O
   O31        1.0     0.548610      1.002840      0.711297     Biso  1.000000 O
   O32        1.0     0.550222      0.294457      0.223498     Biso  1.000000 O
   O33        1.0     0.645161      0.674983      0.008002     Biso  1.000000 O
   O34        1.0     0.646964      0.619747      0.508330     Biso  1.000000 O
   O35        1.0     0.649113      0.122403      0.007650     Biso  1.000000 O
   O36        1.0     0.652859      0.177465      0.507411     Biso  1.000000 O
   O37        1.0     0.746873      0.792105      0.714329     Biso  1.000000 O
   O38        1.0     0.748159      0.502623      0.221848     Biso  1.000000 O
   O39        1.0     0.752891      0.997531      0.284694     Biso  1.000000 O
   O40        1.0     0.752945      0.300330      0.778756     Biso  1.000000 O
   O41        1.0     0.796892      0.548753      0.766418     Biso  1.000000 O
   O42        1.0     0.796981      0.747736      0.274831     Biso  1.000000 O
   O43        1.0     0.797815      0.249306      0.230250     Biso  1.000000 O
   O44        1.0     0.798267      0.048774      0.727713     Biso  1.000000 O
   O45        1.0     0.868867      0.399969      0.491732     Biso  1.000000 O
   O46        1.0     0.871591      0.892707     -0.007912     Biso  1.000000 O
   O47        1.0     0.924390      0.894593      0.492163     Biso  1.000000 O
   O48        1.0     0.926462      0.402028     -0.008413     Biso  1.000000 O
