#======================================================================

# CRYSTAL DATA

#----------------------------------------------------------------------

data_VESTA_phase_1


_chemical_name_common                  ''
_cell_length_a                         10.46820
_cell_length_b                         10.47430
_cell_length_c                         7.75700
_cell_angle_alpha                      90
_cell_angle_beta                       90
_cell_angle_gamma                      90
_space_group_name_H-M_alt              'P 1'
_space_group_IT_number                 1

loop_
_space_group_symop_operation_xyz
   'x, y, z'

loop_
   _atom_site_label
   _atom_site_occupancy
   _atom_site_fract_x
   _atom_site_fract_y
   _atom_site_fract_z
   _atom_site_adp_type
   _atom_site_B_iso_or_equiv
   _atom_site_type_symbol
   W1         1.0     0.143925      0.899550      0.224399     Biso  1.000000 W
   W2         1.0     0.145204      0.390862      0.717865     Biso  1.000000 W
   W3         1.0     0.155317      0.901451      0.716049     Biso  1.000000 W
   W4         1.0     0.156569      0.392611      0.226168     Biso  1.000000 W
   W5         1.0     0.391161      0.642465      0.774310     Biso  1.000000 W
   W6         1.0     0.394353      0.653311      0.283346     Biso  1.000000 W
   W7         1.0     0.402381      0.142589      0.282700     Biso  1.000000 W
   W8         1.0     0.407194      0.153947      0.773605     Biso  1.000000 W
   W9         1.0     0.639707      0.400644      0.224640     Biso  1.000000 W
   W10        1.0     0.643452      0.886423      0.718210     Biso  1.000000 W
   W11        1.0     0.650891      0.407163      0.716830     Biso  1.000000 W
   W12        1.0     0.653900      0.892274      0.226179     Biso  1.000000 W
   W13        1.0     0.886673      0.147260      0.774463     Biso  1.000000 W
   W14        1.0     0.893445      0.157262      0.283858     Biso  1.000000 W
   W15        1.0     0.897113      0.639070      0.283146     Biso  1.000000 W
   W16        1.0     0.905881      0.650038      0.773700     Biso  1.000000 W
   O1         1.0    -0.002562      0.294474      0.714466     Biso  1.000000 O
   O2         1.0    -0.001590      1.002440      0.222402     Biso  1.000000 O
   O3         1.0     0.002932      0.497377      0.284545     Biso  1.000000 O
   O4         1.0     0.002750      0.796786      0.779088     Biso  1.000000 O
   O5         1.0     0.049910      0.545294      0.726888     Biso  1.000000 O
   O6         1.0     0.049974      0.249472      0.273370     Biso  1.000000 O
   O7         1.0     0.050347      0.049453      0.767794     Biso  1.000000 O
   O8         1.0     0.051020      0.746494      0.231680     Biso  1.000000 O
   O9         1.0     0.120989      0.897121      0.491429     Biso  1.000000 O
   O10        1.0     0.124173      0.395451     -0.007907     Biso  1.000000 O
   O11        1.0     0.176729      0.395974      0.492109     Biso  1.000000 O
   O12        1.0     0.179331      0.897525     -0.008561     Biso  1.000000 O
   O13        1.0     0.249079      0.747267      0.723802     Biso  1.000000 O
   O14        1.0     0.250572      0.049230      0.277186     Biso  1.000000 O
   O15        1.0     0.250894      0.545912      0.234404     Biso  1.000000 O
   O16        1.0     0.251535      0.249323      0.763791     Biso  1.000000 O
   O17        1.0     0.294602      0.796704      0.287107     Biso  1.000000 O
   O18        1.0     0.294716      0.497495      0.777361     Biso  1.000000 O
   O19        1.0     0.299334      1.002560      0.711422     Biso  1.000000 O
   O20        1.0     0.300938      0.294141      0.223537     Biso  1.000000 O
   O21        1.0     0.395468      0.674734      0.008091     Biso  1.000000 O
   O22        1.0     0.397263      0.619488      0.508419     Biso  1.000000 O
   O23        1.0     0.399402      0.122057      0.007739     Biso  1.000000 O
   O24        1.0     0.403132      0.177129      0.507500     Biso  1.000000 O
   O25        1.0     0.496741      0.791877      0.714454     Biso  1.000000 O
   O26        1.0     0.498021      0.502344      0.221887     Biso  1.000000 O
   O27        1.0     0.502733      0.997251      0.284744     Biso  1.000000 O
   O28        1.0     0.502786      0.300015      0.778892     Biso  1.000000 O
   O29        1.0     0.546543      0.548482      0.766552     Biso  1.000000 O
   O30        1.0     0.546632      0.747500      0.274879     Biso  1.000000 O
   O31        1.0     0.547462      0.248982      0.230291     Biso  1.000000 O
   O32        1.0     0.547912      0.048415      0.727840     Biso  1.000000 O
   O33        1.0     0.618207      0.399672      0.491818     Biso  1.000000 O
   O34        1.0     0.620920      0.892496     -0.007825     Biso  1.000000 O
   O35        1.0     0.673490      0.894383      0.492249     Biso  1.000000 O
   O36        1.0     0.675554      0.401731     -0.008327     Biso  1.000000 O
   O37        1.0     0.745955      0.251510      0.726312     Biso  1.000000 O
   O38        1.0     0.746611      0.545945      0.278532     Biso  1.000000 O
   O39        1.0     0.748677      0.746447      0.762953     Biso  1.000000 O
   O40        1.0     0.748774      0.049277      0.233103     Biso  1.000000 O
   O41        1.0     0.791599      0.998309      0.778230     Biso  1.000000 O
   O42        1.0     0.791651      0.299456      0.285957     Biso  1.000000 O
   O43        1.0     0.796399      0.502961      0.711554     Biso  1.000000 O
   O44        1.0     0.796918      0.791355      0.224823     Biso  1.000000 O
   O45        1.0     0.893362      0.123287      0.508923     Biso  1.000000 O
   O46        1.0     0.894272      0.177858      0.008561     Biso  1.000000 O
   O47        1.0     0.895349      0.619639      0.007945     Biso  1.000000 O
   O48        1.0     0.900239      0.673827      0.507984     Biso  1.000000 O
