#======================================================================

# CRYSTAL DATA

#----------------------------------------------------------------------

data_VESTA_phase_1


_chemical_name_common                  ''
_cell_length_a                         10.44580
_cell_length_b                         10.47430
_cell_length_c                         7.75518
_cell_angle_alpha                      90
_cell_angle_beta                       90
_cell_angle_gamma                      90
_space_group_name_H-M_alt              'P 1'
_space_group_IT_number                 1

loop_
_space_group_symop_operation_xyz
   'x, y, z'

loop_
   _atom_site_label
   _atom_site_occupancy
   _atom_site_fract_x
   _atom_site_fract_y
   _atom_site_fract_z
   _atom_site_adp_type
   _atom_site_B_iso_or_equiv
   _atom_site_type_symbol
   W1         1.0     0.142387      0.642465      0.774258     Biso  1.000000 W
   W2         1.0     0.145586      0.653311      0.283178     Biso  1.000000 W
   W3         1.0     0.153630      0.142589      0.282532     Biso  1.000000 W
   W4         1.0     0.158455      0.153947      0.773552     Biso  1.000000 W
   W5         1.0     0.391466      0.400644      0.224458     Biso  1.000000 W
   W6         1.0     0.395219      0.886423      0.718144     Biso  1.000000 W
   W7         1.0     0.402673      0.407163      0.716764     Biso  1.000000 W
   W8         1.0     0.405689      0.892274      0.225998     Biso  1.000000 W
   W9         1.0     0.638961      0.147260      0.774410     Biso  1.000000 W
   W10        1.0     0.645748      0.157262      0.283691     Biso  1.000000 W
   W11        1.0     0.649423      0.639070      0.282979     Biso  1.000000 W
   W12        1.0     0.658210      0.650038      0.773647     Biso  1.000000 W
   W13        1.0     0.888629      0.896781      0.225150     Biso  1.000000 W
   W14        1.0     0.895472      0.388129      0.718290     Biso  1.000000 W
   W15        1.0     0.899402      0.906331      0.717727     Biso  1.000000 W
   W16        1.0     0.905347      0.396279      0.226048     Biso  1.000000 W
   O1         1.0    -0.002180      0.748255      0.726213     Biso  1.000000 O
   O2         1.0    -0.000513      0.048683      0.278314     Biso  1.000000 O
   O3         1.0     0.000492      0.546419      0.232860     Biso  1.000000 O
   O4         1.0     0.001231      0.248992      0.762812     Biso  1.000000 O
   O5         1.0     0.045621      0.796704      0.286940     Biso  1.000000 O
   O6         1.0     0.045736      0.497495      0.777309     Biso  1.000000 O
   O7         1.0     0.050363      1.002560      0.711355     Biso  1.000000 O
   O8         1.0     0.051971      0.294141      0.223356     Biso  1.000000 O
   O9         1.0     0.146703      0.674734      0.007976     Biso  1.000000 O
   O10        1.0     0.148502      0.619488      0.508304     Biso  1.000000 O
   O11        1.0     0.150646      0.122057      0.007624     Biso  1.000000 O
   O12        1.0     0.154384      0.177129      0.507385     Biso  1.000000 O
   O13        1.0     0.248193      0.791877      0.714387     Biso  1.000000 O
   O14        1.0     0.249476      0.502344      0.221705     Biso  1.000000 O
   O15        1.0     0.254197      0.997251      0.284577     Biso  1.000000 O
   O16        1.0     0.254251      0.300015      0.778840     Biso  1.000000 O
   O17        1.0     0.298102      0.548482      0.766497     Biso  1.000000 O
   O18        1.0     0.298191      0.747500      0.274710     Biso  1.000000 O
   O19        1.0     0.299023      0.248982      0.230110     Biso  1.000000 O
   O20        1.0     0.299474      0.048415      0.727777     Biso  1.000000 O
   O21        1.0     0.369920      0.399672      0.491699     Biso  1.000000 O
   O22        1.0     0.372638      0.892496     -0.007944     Biso  1.000000 O
   O23        1.0     0.425321      0.894383      0.492130     Biso  1.000000 O
   O24        1.0     0.427390      0.401731     -0.008446     Biso  1.000000 O
   O25        1.0     0.497942      0.251510      0.726248     Biso  1.000000 O
   O26        1.0     0.498599      0.545945      0.278363     Biso  1.000000 O
   O27        1.0     0.500669      0.746447      0.762897     Biso  1.000000 O
   O28        1.0     0.500767      0.049277      0.232924     Biso  1.000000 O
   O29        1.0     0.543683      0.998309      0.778178     Biso  1.000000 O
   O30        1.0     0.543736      0.299456      0.285790     Biso  1.000000 O
   O31        1.0     0.548493      0.502961      0.711486     Biso  1.000000 O
   O32        1.0     0.549013      0.791355      0.224642     Biso  1.000000 O
   O33        1.0     0.645664      0.123287      0.508808     Biso  1.000000 O
   O34        1.0     0.646576      0.177858      0.008446     Biso  1.000000 O
   O35        1.0     0.647655      0.619639      0.007830     Biso  1.000000 O
   O36        1.0     0.652556      0.673827      0.507868     Biso  1.000000 O
   O37        1.0     0.747724      1.002750      0.223958     Biso  1.000000 O
   O38        1.0     0.747395      0.295027      0.714128     Biso  1.000000 O
   O39        1.0     0.752064      0.797283      0.779171     Biso  1.000000 O
   O40        1.0     0.752531      0.497688      0.283201     Biso  1.000000 O
   O41        1.0     0.795854      0.746466      0.229876     Biso  1.000000 O
   O42        1.0     0.796078      0.051993      0.764827     Biso  1.000000 O
   O43        1.0     0.797103      0.251021      0.276854     Biso  1.000000 O
   O44        1.0     0.798376      0.545692      0.729388     Biso  1.000000 O
   O45        1.0     0.868508      0.896201      0.492283     Biso  1.000000 O
   O46        1.0     0.871991      0.394285     -0.007817     Biso  1.000000 O
   O47        1.0     0.924209      0.900032     -0.007959     Biso  1.000000 O
   O48        1.0     0.924340      0.398477      0.492225     Biso  1.000000 O
