#======================================================================

# CRYSTAL DATA

#----------------------------------------------------------------------

data_VESTA_phase_1


_chemical_name_common                  ''
_cell_length_a                         10.48420
_cell_length_b                         10.47520
_cell_length_c                         7.75683
_cell_angle_alpha                      90
_cell_angle_beta                       90
_cell_angle_gamma                      90
_space_group_name_H-M_alt              'P 1'
_space_group_IT_number                 1

loop_
_space_group_symop_operation_xyz
   'x, y, z'

loop_
   _atom_site_label
   _atom_site_occupancy
   _atom_site_fract_x
   _atom_site_fract_y
   _atom_site_fract_z
   _atom_site_adp_type
   _atom_site_B_iso_or_equiv
   _atom_site_type_symbol
   W1         1.0     0.142748      0.400610      0.224411     Biso  1.000000 W
   W2         1.0     0.146488      0.886348      0.717991     Biso  1.000000 W
   W3         1.0     0.153915      0.407129      0.716611     Biso  1.000000 W
   W4         1.0     0.156919      0.892199      0.225950     Biso  1.000000 W
   W5         1.0     0.389337      0.147248      0.774245     Biso  1.000000 W
   W6         1.0     0.396099      0.157249      0.283630     Biso  1.000000 W
   W7         1.0     0.399761      0.639016      0.282918     Biso  1.000000 W
   W8         1.0     0.408516      0.649982      0.773483     Biso  1.000000 W
   W9         1.0     0.638091      0.896705      0.225102     Biso  1.000000 W
   W10        1.0     0.644909      0.388096      0.718137     Biso  1.000000 W
   W11        1.0     0.648825      0.906254      0.717575     Biso  1.000000 W
   W12        1.0     0.654748      0.396245      0.226000     Biso  1.000000 W
   W13        1.0     0.884386      0.645483      0.774044     Biso  1.000000 W
   W14        1.0     0.893322      0.654824      0.283732     Biso  1.000000 W
   W15        1.0     0.896352      0.140844      0.283700     Biso  1.000000 W
   W16        1.0     0.906785      0.151677      0.774301     Biso  1.000000 W
   O1         1.0    -0.002938      0.791820      0.713983     Biso  1.000000 O
   O2         1.0    -0.002074      0.502413      0.223785     Biso  1.000000 O
   O3         1.0     0.002805      0.997281      0.283545     Biso  1.000000 O
   O4         1.0     0.002663      0.299774      0.779184     Biso  1.000000 O
   O5         1.0     0.049727      0.548436      0.766334     Biso  1.000000 O
   O6         1.0     0.049815      0.747437      0.274651     Biso  1.000000 O
   O7         1.0     0.050644      0.248961      0.230062     Biso  1.000000 O
   O8         1.0     0.051093      0.048411      0.727622     Biso  1.000000 O
   O9         1.0     0.121281      0.399638      0.491595     Biso  1.000000 O
   O10        1.0     0.123989      0.892421     -0.008049     Biso  1.000000 O
   O11        1.0     0.176480      0.894307      0.492025     Biso  1.000000 O
   O12        1.0     0.178541      0.401697     -0.008550     Biso  1.000000 O
   O13        1.0     0.248834      0.251488      0.726094     Biso  1.000000 O
   O14        1.0     0.249489      0.545899      0.278304     Biso  1.000000 O
   O15        1.0     0.251552      0.746384      0.762735     Biso  1.000000 O
   O16        1.0     0.251649      0.049273      0.232874     Biso  1.000000 O
   O17        1.0     0.294408      0.998267      0.778012     Biso  1.000000 O
   O18        1.0     0.294461      0.299431      0.285729     Biso  1.000000 O
   O19        1.0     0.299201      0.502919      0.711335     Biso  1.000000 O
   O20        1.0     0.299719      0.791288      0.224594     Biso  1.000000 O
   O21        1.0     0.396016      0.123277      0.508700     Biso  1.000000 O
   O22        1.0     0.396925      0.177843      0.008338     Biso  1.000000 O
   O23        1.0     0.398000      0.619586      0.007722     Biso  1.000000 O
   O24        1.0     0.402882      0.673770      0.507760     Biso  1.000000 O
   O25        1.0     0.497702      1.002710      0.223911     Biso  1.000000 O
   O26        1.0     0.497374      0.295002      0.713977     Biso  1.000000 O
   O27        1.0     0.502026      0.797215      0.779005     Biso  1.000000 O
   O28        1.0     0.502491      0.497645      0.283141     Biso  1.000000 O
   O29        1.0     0.545656      0.746403      0.229827     Biso  1.000000 O
   O30        1.0     0.545879      0.051989      0.764664     Biso  1.000000 O
   O31        1.0     0.546900      0.250999      0.276795     Biso  1.000000 O
   O32        1.0     0.548168      0.545645      0.729233     Biso  1.000000 O
   O33        1.0     0.618044      0.896125      0.492178     Biso  1.000000 O
   O34        1.0     0.621514      0.394252     -0.007922     Biso  1.000000 O
   O35        1.0     0.673541      0.899956     -0.008064     Biso  1.000000 O
   O36        1.0     0.673672      0.398443      0.492121     Biso  1.000000 O
   O37        1.0     0.744711      0.749180      0.728534     Biso  1.000000 O
   O38        1.0     0.746540      0.048132      0.279551     Biso  1.000000 O
   O39        1.0     0.748222      0.546879      0.231445     Biso  1.000000 O
   O40        1.0     0.749054      0.248641      0.761727     Biso  1.000000 O
   O41        1.0     0.790595      0.796363      0.284339     Biso  1.000000 O
   O42        1.0     0.791330      0.498116      0.778634     Biso  1.000000 O
   O43        1.0     0.795912      1.002790      0.712235     Biso  1.000000 O
   O44        1.0     0.796486      0.293863      0.226336     Biso  1.000000 O
   O45        1.0     0.890957      0.620869      0.508857     Biso  1.000000 O
   O46        1.0     0.894506      0.122473      0.008550     Biso  1.000000 O
   O47        1.0     0.894681      0.674554      0.008452     Biso  1.000000 O
   O48        1.0     0.900922      0.175545      0.508591     Biso  1.000000 O
