#======================================================================

# CRYSTAL DATA

#----------------------------------------------------------------------

data_VESTA_phase_1


_chemical_name_common                  ''
_cell_length_a                         10.45540
_cell_length_b                         10.47370
_cell_length_c                         7.75306
_cell_angle_alpha                      90
_cell_angle_beta                       90
_cell_angle_gamma                      90
_space_group_name_H-M_alt              'P 1'
_space_group_IT_number                 1

loop_
_space_group_symop_operation_xyz
   'x, y, z'

loop_
   _atom_site_label
   _atom_site_occupancy
   _atom_site_fract_x
   _atom_site_fract_y
   _atom_site_fract_z
   _atom_site_adp_type
   _atom_site_B_iso_or_equiv
   _atom_site_type_symbol
   W1         1.0     0.140889      0.147125      0.774135     Biso  1.000000 W
   W2         1.0     0.147670      0.157128      0.283281     Biso  1.000000 W
   W3         1.0     0.151342      0.638964      0.282569     Biso  1.000000 W
   W4         1.0     0.160121      0.649932      0.773372     Biso  1.000000 W
   W5         1.0     0.390327      0.896690      0.224725     Biso  1.000000 W
   W6         1.0     0.397165      0.388008      0.718000     Biso  1.000000 W
   W7         1.0     0.401091      0.906241      0.717437     Biso  1.000000 W
   W8         1.0     0.407030      0.396158      0.225623     Biso  1.000000 W
   W9         1.0     0.637300      0.645432      0.773934     Biso  1.000000 W
   W10        1.0     0.646261      0.654775      0.283384     Biso  1.000000 W
   W11        1.0     0.649300      0.140721      0.283351     Biso  1.000000 W
   W12        1.0     0.659761      0.151556      0.774191     Biso  1.000000 W
   W13        1.0     0.888720      0.398616      0.225402     Biso  1.000000 W
   W14        1.0     0.896014      0.883756      0.718727     Biso  1.000000 W
   W15        1.0     0.898837      0.409514      0.718237     Biso  1.000000 W
   W16        1.0     0.905791      0.893421      0.226121     Biso  1.000000 W
   O1         1.0    -0.002092      0.251440      0.728048     Biso  1.000000 O
   O2         1.0    -0.000863      0.545125      0.278482     Biso  1.000000 O
   O3         1.0     0.001362      0.745484      0.761716     Biso  1.000000 O
   O4         1.0     0.001344      0.049152      0.231447     Biso  1.000000 O
   O5         1.0     0.045699      0.998195      0.777904     Biso  1.000000 O
   O6         1.0     0.045752      0.299330      0.285381     Biso  1.000000 O
   O7         1.0     0.050505      0.502847      0.711194     Biso  1.000000 O
   O8         1.0     0.051025      0.791258      0.224216     Biso  1.000000 O
   O9         1.0     0.147586      0.123151      0.508460     Biso  1.000000 O
   O10        1.0     0.148498      0.177725      0.008098     Biso  1.000000 O
   O11        1.0     0.149576      0.619532      0.007482     Biso  1.000000 O
   O12        1.0     0.154472      0.673723      0.507521     Biso  1.000000 O
   O13        1.0     0.249553      1.002630      0.223533     Biso  1.000000 O
   O14        1.0     0.249224      0.294900      0.713837     Biso  1.000000 O
   O15        1.0     0.253888      0.797186      0.778898     Biso  1.000000 O
   O16        1.0     0.254355      0.497573      0.282792     Biso  1.000000 O
   O17        1.0     0.297638      0.746366      0.229452     Biso  1.000000 O
   O18        1.0     0.297862      0.051853      0.764550     Biso  1.000000 O
   O19        1.0     0.298886      0.250892      0.276443     Biso  1.000000 O
   O20        1.0     0.300157      0.545580      0.729101     Biso  1.000000 O
   O21        1.0     0.370225      0.896110      0.491931     Biso  1.000000 O
   O22        1.0     0.373705      0.394165     -0.008169     Biso  1.000000 O
   O23        1.0     0.425875      0.899942     -0.008311     Biso  1.000000 O
   O24        1.0     0.426006      0.398356      0.491873     Biso  1.000000 O
   O25        1.0     0.497241      0.749144      0.728402     Biso  1.000000 O
   O26        1.0     0.499075      0.047995      0.279200     Biso  1.000000 O
   O27        1.0     0.500762      0.546814      0.231071     Biso  1.000000 O
   O28        1.0     0.501596      0.248533      0.761612     Biso  1.000000 O
   O29        1.0     0.543251      0.796334      0.283991     Biso  1.000000 O
   O30        1.0     0.543988      0.498044      0.778527     Biso  1.000000 O
   O31        1.0     0.548583      1.002720      0.712095     Biso  1.000000 O
   O32        1.0     0.549159      0.293761      0.225959     Biso  1.000000 O
   O33        1.0     0.643889      0.620814      0.508618     Biso  1.000000 O
   O34        1.0     0.647449      0.122347      0.008311     Biso  1.000000 O
   O35        1.0     0.647624      0.674507      0.008212     Biso  1.000000 O
   O36        1.0     0.653882      0.175426      0.508352     Biso  1.000000 O
   O37        1.0     0.747341      0.791800      0.713591     Biso  1.000000 O
   O38        1.0     0.747791      0.502455      0.225536     Biso  1.000000 O
   O39        1.0     0.752860      0.997280      0.282225     Biso  1.000000 O
   O40        1.0     0.752521      0.299457      0.779586     Biso  1.000000 O
   O41        1.0     0.795367      0.549123      0.762826     Biso  1.000000 O
   O42        1.0     0.795842      0.248847      0.229548     Biso  1.000000 O
   O43        1.0     0.796887      0.748194      0.278210     Biso  1.000000 O
   O44        1.0     0.799259      0.047524      0.731288     Biso  1.000000 O
   O45        1.0     0.869650      0.397717      0.492353     Biso  1.000000 O
   O46        1.0     0.872153      0.889933     -0.007677     Biso  1.000000 O
   O47        1.0     0.923655      0.402933     -0.007926     Biso  1.000000 O
   O48        1.0     0.924074      0.895905      0.492480     Biso  1.000000 O
