#======================================================================

# CRYSTAL DATA

#----------------------------------------------------------------------

data_VESTA_phase_1


_chemical_name_common                  ''
_cell_length_a                         10.47390
_cell_length_b                         10.49250
_cell_length_c                         7.75736
_cell_angle_alpha                      90
_cell_angle_beta                       90
_cell_angle_gamma                      90
_space_group_name_H-M_alt              'P 1'
_space_group_IT_number                 1

loop_
_space_group_symop_operation_xyz
   'x, y, z'

loop_
   _atom_site_label
   _atom_site_occupancy
   _atom_site_fract_x
   _atom_site_fract_y
   _atom_site_fract_z
   _atom_site_adp_type
   _atom_site_B_iso_or_equiv
   _atom_site_type_symbol
   W1         1.0     0.144404      0.889515      0.715724     Biso  1.000000 W
   W2         1.0     0.146630      0.406886      0.226838     Biso  1.000000 W
   W3         1.0     0.153976      0.406095      0.717962     Biso  1.000000 W
   W4         1.0     0.154865      0.887859      0.224511     Biso  1.000000 W
   W5         1.0     0.391287      0.154117      0.282656     Biso  1.000000 W
   W6         1.0     0.392048      0.145727      0.774599     Biso  1.000000 W
   W7         1.0     0.402386      0.652750      0.774595     Biso  1.000000 W
   W8         1.0     0.408115      0.643304      0.282703     Biso  1.000000 W
   W9         1.0     0.640221      0.395479      0.716332     Biso  1.000000 W
   W10        1.0     0.644071      0.905063      0.226988     Biso  1.000000 W
   W11        1.0     0.650586      0.390012      0.225513     Biso  1.000000 W
   W12        1.0     0.651887      0.900782      0.717803     Biso  1.000000 W
   W13        1.0     0.886019      0.650149      0.282103     Biso  1.000000 W
   W14        1.0     0.890825      0.641608      0.774390     Biso  1.000000 W
   W15        1.0     0.898397      0.158184      0.774628     Biso  1.000000 W
   W16        1.0     0.906202      0.148359      0.282429     Biso  1.000000 W
   O1         1.0    -0.002991      0.502335      0.222970     Biso  1.000000 O
   O2         1.0    -0.001820      0.790763      0.712957     Biso  1.000000 O
   O3         1.0     0.002773      0.997181      0.287751     Biso  1.000000 O
   O4         1.0     0.003020      0.299231      0.776565     Biso  1.000000 O
   O5         1.0     0.048297      0.546582      0.763523     Biso  1.000000 O
   O6         1.0     0.049512      0.745507      0.276583     Biso  1.000000 O
   O7         1.0     0.050680      0.250966      0.235167     Biso  1.000000 O
   O8         1.0     0.051198      0.049434      0.722739     Biso  1.000000 O
   O9         1.0     0.120433      0.892061     -0.008584     Biso  1.000000 O
   O10        1.0     0.123743      0.400311      0.492000     Biso  1.000000 O
   O11        1.0     0.176508      0.401240     -0.007794     Biso  1.000000 O
   O12        1.0     0.179217      0.891785      0.491249     Biso  1.000000 O
   O13        1.0     0.249329      0.049145      0.232170     Biso  1.000000 O
   O14        1.0     0.250235      0.746455      0.768746     Biso  1.000000 O
   O15        1.0     0.250517      0.251552      0.726921     Biso  1.000000 O
   O16        1.0     0.251544      0.547208      0.273175     Biso  1.000000 O
   O17        1.0     0.294120      0.997164      0.778541     Biso  1.000000 O
   O18        1.0     0.294511      0.298882      0.285541     Biso  1.000000 O
   O19        1.0     0.298876      0.790162      0.219967     Biso  1.000000 O
   O20        1.0     0.299688      0.502664      0.714694     Biso  1.000000 O
   O21        1.0     0.395114      0.122409      0.507962     Biso  1.000000 O
   O22        1.0     0.397162      0.177625      0.008584     Biso  1.000000 O
   O23        1.0     0.399320      0.674640      0.508044     Biso  1.000000 O
   O24        1.0     0.402562      0.618709      0.008076     Biso  1.000000 O
   O25        1.0     0.496825      1.001960      0.223141     Biso  1.000000 O
   O26        1.0     0.498335      0.294178      0.713211     Biso  1.000000 O
   O27        1.0     0.502521      0.496875      0.288005     Biso  1.000000 O
   O28        1.0     0.502550      0.795475      0.776628     Biso  1.000000 O
   O29        1.0     0.545839      0.050147      0.765747     Biso  1.000000 O
   O30        1.0     0.546185      0.248872      0.275187     Biso  1.000000 O
   O31        1.0     0.546629      0.546795      0.722086     Biso  1.000000 O
   O32        1.0     0.547741      0.748050      0.236132     Biso  1.000000 O
   O33        1.0     0.617854      0.397032     -0.008070     Biso  1.000000 O
   O34        1.0     0.620218      0.898366      0.492008     Biso  1.000000 O
   O35        1.0     0.673320      0.897302     -0.007596     Biso  1.000000 O
   O36        1.0     0.675364      0.395380      0.491687     Biso  1.000000 O
   O37        1.0     0.745281      0.545755      0.234191     Biso  1.000000 O
   O38        1.0     0.747323      0.251592      0.769605     Biso  1.000000 O
   O39        1.0     0.747650      0.748445      0.724911     Biso  1.000000 O
   O40        1.0     0.748810      0.052263      0.272227     Biso  1.000000 O
   O41        1.0     0.790772      0.498342      0.777312     Biso  1.000000 O
   O42        1.0     0.791044      0.796210      0.286286     Biso  1.000000 O
   O43        1.0     0.796306      1.003610      0.715776     Biso  1.000000 O
   O44        1.0     0.796257      0.294774      0.220220     Biso  1.000000 O
   O45        1.0     0.892493      0.674554      0.008308     Biso  1.000000 O
   O46        1.0     0.892902      0.619705      0.507677     Biso  1.000000 O
   O47        1.0     0.896167      0.178924      0.507888     Biso  1.000000 O
   O48        1.0     0.900233      0.123752      0.008110     Biso  1.000000 O
