#======================================================================

# CRYSTAL DATA

#----------------------------------------------------------------------

data_VESTA_phase_1


_chemical_name_common                  ''
_cell_length_a                         10.48450
_cell_length_b                         10.47370
_cell_length_c                         7.75332
_cell_angle_alpha                      90
_cell_angle_beta                       90
_cell_angle_gamma                      90
_space_group_name_H-M_alt              'P 1'
_space_group_IT_number                 1

loop_
_space_group_symop_operation_xyz
   'x, y, z'

loop_
   _atom_site_label
   _atom_site_occupancy
   _atom_site_fract_x
   _atom_site_fract_y
   _atom_site_fract_z
   _atom_site_adp_type
   _atom_site_B_iso_or_equiv
   _atom_site_type_symbol
   W1         1.0     0.140756      0.896690      0.224717     Biso  1.000000 W
   W2         1.0     0.147575      0.388008      0.717976     Biso  1.000000 W
   W3         1.0     0.151490      0.906241      0.717413     Biso  1.000000 W
   W4         1.0     0.157413      0.396158      0.225616     Biso  1.000000 W
   W5         1.0     0.387044      0.645432      0.773908     Biso  1.000000 W
   W6         1.0     0.395980      0.654775      0.283374     Biso  1.000000 W
   W7         1.0     0.399010      0.140721      0.283342     Biso  1.000000 W
   W8         1.0     0.409442      0.151556      0.774165     Biso  1.000000 W
   W9         1.0     0.637766      0.398616      0.225395     Biso  1.000000 W
   W10        1.0     0.645039      0.883756      0.718703     Biso  1.000000 W
   W11        1.0     0.647855      0.409514      0.718213     Biso  1.000000 W
   W12        1.0     0.654789      0.893421      0.226113     Biso  1.000000 W
   W13        1.0     0.883662      0.148081      0.774008     Biso  1.000000 W
   W14        1.0     0.893968      0.157319      0.283494     Biso  1.000000 W
   W15        1.0     0.896327      0.636776      0.282633     Biso  1.000000 W
   W16        1.0     0.907023      0.647121      0.773260     Biso  1.000000 W
   O1         1.0    -0.002600      1.002300      0.224920     Biso  1.000000 O
   O2         1.0    -0.002601      0.294181      0.713382     Biso  1.000000 O
   O3         1.0     0.001820      0.796359      0.778726     Biso  1.000000 O
   O4         1.0     0.002581      0.496927      0.282043     Biso  1.000000 O
   O5         1.0     0.048325      0.746366      0.229445     Biso  1.000000 O
   O6         1.0     0.048547      0.051853      0.764524     Biso  1.000000 O
   O7         1.0     0.049568      0.250892      0.276434     Biso  1.000000 O
   O8         1.0     0.050836      0.545580      0.729076     Biso  1.000000 O
   O9         1.0     0.120710      0.896110      0.491914     Biso  1.000000 O
   O10        1.0     0.124180      0.394165     -0.008185     Biso  1.000000 O
   O11        1.0     0.176205      0.899942     -0.008328     Biso  1.000000 O
   O12        1.0     0.176336      0.398356      0.491857     Biso  1.000000 O
   O13        1.0     0.247373      0.749144      0.728377     Biso  1.000000 O
   O14        1.0     0.249202      0.047995      0.279191     Biso  1.000000 O
   O15        1.0     0.250885      0.546814      0.231063     Biso  1.000000 O
   O16        1.0     0.251716      0.248533      0.761586     Biso  1.000000 O
   O17        1.0     0.293256      0.796334      0.283981     Biso  1.000000 O
   O18        1.0     0.293991      0.498044      0.778501     Biso  1.000000 O
   O19        1.0     0.298573      1.002720      0.712071     Biso  1.000000 O
   O20        1.0     0.299147      0.293761      0.225952     Biso  1.000000 O
   O21        1.0     0.393615      0.620814      0.508601     Biso  1.000000 O
   O22        1.0     0.397164      0.122347      0.008294     Biso  1.000000 O
   O23        1.0     0.397339      0.674507      0.008195     Biso  1.000000 O
   O24        1.0     0.403579      0.175426      0.508335     Biso  1.000000 O
   O25        1.0     0.496779      0.791800      0.713567     Biso  1.000000 O
   O26        1.0     0.497228      0.502455      0.225528     Biso  1.000000 O
   O27        1.0     0.502282      0.997280      0.282216     Biso  1.000000 O
   O28        1.0     0.501944      0.299457      0.779560     Biso  1.000000 O
   O29        1.0     0.544671      0.549123      0.762800     Biso  1.000000 O
   O30        1.0     0.545146      0.248847      0.229540     Biso  1.000000 O
   O31        1.0     0.546187      0.748194      0.278201     Biso  1.000000 O
   O32        1.0     0.548553      0.047524      0.731264     Biso  1.000000 O
   O33        1.0     0.618748      0.397717      0.492336     Biso  1.000000 O
   O34        1.0     0.621245      0.889933     -0.007693     Biso  1.000000 O
   O35        1.0     0.672603      0.402933     -0.007942     Biso  1.000000 O
   O36        1.0     0.673021      0.895905      0.492463     Biso  1.000000 O
   O37        1.0     0.744565      0.251500      0.730112     Biso  1.000000 O
   O38        1.0     0.746361      0.544416      0.279002     Biso  1.000000 O
   O39        1.0     0.748603      0.049168      0.230385     Biso  1.000000 O
   O40        1.0     0.748737      0.744620      0.760788     Biso  1.000000 O
   O41        1.0     0.790730      0.298435      0.283063     Biso  1.000000 O
   O42        1.0     0.791215      0.997295      0.779202     Biso  1.000000 O
   O43        1.0     0.795767      0.790242      0.226967     Biso  1.000000 O
   O44        1.0     0.795778      0.501738      0.712619     Biso  1.000000 O
   O45        1.0     0.890247      0.123253      0.508683     Biso  1.000000 O
   O46        1.0     0.894261      0.619144      0.007800     Biso  1.000000 O
   O47        1.0     0.895722      0.176556      0.008328     Biso  1.000000 O
   O48        1.0     0.900934      0.671058      0.507961     Biso  1.000000 O
