#======================================================================

# CRYSTAL DATA

#----------------------------------------------------------------------

data_VESTA_phase_1


_chemical_name_common                  ''
_cell_length_a                         10.47960
_cell_length_b                         10.47370
_cell_length_c                         7.75188
_cell_angle_alpha                      90
_cell_angle_beta                       90
_cell_angle_gamma                      90
_space_group_name_H-M_alt              'P 1'
_space_group_IT_number                 1

loop_
_space_group_symop_operation_xyz
   'x, y, z'

loop_
   _atom_site_label
   _atom_site_occupancy
   _atom_site_fract_x
   _atom_site_fract_y
   _atom_site_fract_z
   _atom_site_adp_type
   _atom_site_B_iso_or_equiv
   _atom_site_type_symbol
   W1         1.0     0.139737      0.645432      0.773866     Biso  1.000000 W
   W2         1.0     0.148676      0.654775      0.283241     Biso  1.000000 W
   W3         1.0     0.151708      0.140721      0.283208     Biso  1.000000 W
   W4         1.0     0.162145      0.151556      0.774123     Biso  1.000000 W
   W5         1.0     0.390576      0.398616      0.225251     Biso  1.000000 W
   W6         1.0     0.397854      0.883756      0.718651     Biso  1.000000 W
   W7         1.0     0.400670      0.409514      0.718160     Biso  1.000000 W
   W8         1.0     0.407608      0.893421      0.225969     Biso  1.000000 W
   W9         1.0     0.636588      0.148081      0.773966     Biso  1.000000 W
   W10        1.0     0.646899      0.157319      0.283361     Biso  1.000000 W
   W11        1.0     0.649259      0.636776      0.282500     Biso  1.000000 W
   W12        1.0     0.659961      0.647121      0.773217     Biso  1.000000 W
   W13        1.0     0.887737      0.895577      0.225264     Biso  1.000000 W
   W14        1.0     0.896346      0.384900      0.718231     Biso  1.000000 W
   W15        1.0     0.897264      0.906491      0.718243     Biso  1.000000 W
   W16        1.0     0.906203      0.395121      0.225405     Biso  1.000000 W
   O1         1.0    -0.002659      0.748601      0.729568     Biso  1.000000 O
   O2         1.0    -0.000295      0.047141      0.278790     Biso  1.000000 O
   O3         1.0     0.001185      0.546139      0.230165     Biso  1.000000 O
   O4         1.0     0.002173      0.247309      0.761083     Biso  1.000000 O
   O5         1.0     0.045904      0.796334      0.283848     Biso  1.000000 O
   O6         1.0     0.046640      0.498044      0.778459     Biso  1.000000 O
   O7         1.0     0.051224      1.002720      0.712017     Biso  1.000000 O
   O8         1.0     0.051798      0.293761      0.225808     Biso  1.000000 O
   O9         1.0     0.146310      0.620814      0.508509     Biso  1.000000 O
   O10        1.0     0.149861      0.122347      0.008203     Biso  1.000000 O
   O11        1.0     0.150037      0.674507      0.008104     Biso  1.000000 O
   O12        1.0     0.156280      0.175426      0.508244     Biso  1.000000 O
   O13        1.0     0.249524      0.791800      0.713514     Biso  1.000000 O
   O14        1.0     0.249972      0.502455      0.225384     Biso  1.000000 O
   O15        1.0     0.255029      0.997280      0.282082     Biso  1.000000 O
   O16        1.0     0.254691      0.299457      0.779519     Biso  1.000000 O
   O17        1.0     0.297438      0.549123      0.762756     Biso  1.000000 O
   O18        1.0     0.297913      0.248847      0.229397     Biso  1.000000 O
   O19        1.0     0.298955      0.748194      0.278067     Biso  1.000000 O
   O20        1.0     0.301322      0.047524      0.731214     Biso  1.000000 O
   O21        1.0     0.371550      0.397717      0.492242     Biso  1.000000 O
   O22        1.0     0.374048      0.889933     -0.007787     Biso  1.000000 O
   O23        1.0     0.425431      0.402933     -0.008037     Biso  1.000000 O
   O24        1.0     0.425849      0.895905      0.492369     Biso  1.000000 O
   O25        1.0     0.497426      0.251500      0.730062     Biso  1.000000 O
   O26        1.0     0.499223      0.544416      0.278868     Biso  1.000000 O
   O27        1.0     0.501466      0.049168      0.230242     Biso  1.000000 O
   O28        1.0     0.501600      0.744620      0.760743     Biso  1.000000 O
   O29        1.0     0.543613      0.298435      0.282930     Biso  1.000000 O
   O30        1.0     0.544098      0.997295      0.779161     Biso  1.000000 O
   O31        1.0     0.548652      0.790242      0.226823     Biso  1.000000 O
   O32        1.0     0.548663      0.501738      0.712565     Biso  1.000000 O
   O33        1.0     0.643176      0.123253      0.508591     Biso  1.000000 O
   O34        1.0     0.647192      0.619144      0.007709     Biso  1.000000 O
   O35        1.0     0.648654      0.176556      0.008236     Biso  1.000000 O
   O36        1.0     0.653869      0.671058      0.507870     Biso  1.000000 O
   O37        1.0     0.747407      1.001970      0.226171     Biso  1.000000 O
   O38        1.0     0.747733      0.293461      0.712897     Biso  1.000000 O
   O39        1.0     0.751925      0.795531      0.778540     Biso  1.000000 O
   O40        1.0     0.752981      0.496280      0.281170     Biso  1.000000 O
   O41        1.0     0.794963      0.051105      0.761650     Biso  1.000000 O
   O42        1.0     0.794971      0.745710      0.229322     Biso  1.000000 O
   O43        1.0     0.797119      0.250206      0.278910     Biso  1.000000 O
   O44        1.0     0.798949      0.543493      0.731248     Biso  1.000000 O
   O45        1.0     0.869277      0.894122      0.492069     Biso  1.000000 O
   O46        1.0     0.872207      0.391024     -0.008176     Biso  1.000000 O
   O47        1.0     0.921935      0.899879     -0.008236     Biso  1.000000 O
   O48        1.0     0.924268      0.397771      0.492038     Biso  1.000000 O
