#======================================================================

# CRYSTAL DATA

#----------------------------------------------------------------------

data_VESTA_phase_1


_chemical_name_common                  ''
_cell_length_a                         10.49990
_cell_length_b                         10.48730
_cell_length_c                         7.75188
_cell_angle_alpha                      90
_cell_angle_beta                       90
_cell_angle_gamma                      90
_space_group_name_H-M_alt              'P 1'
_space_group_IT_number                 1

loop_
_space_group_symop_operation_xyz
   'x, y, z'

loop_
   _atom_site_label
   _atom_site_occupancy
   _atom_site_fract_x
   _atom_site_fract_y
   _atom_site_fract_z
   _atom_site_adp_type
   _atom_site_B_iso_or_equiv
   _atom_site_type_symbol
   W1         1.0     0.140779      0.400144      0.225251     Biso  1.000000 W
   W2         1.0     0.148043      0.884656      0.718651     Biso  1.000000 W
   W3         1.0     0.150854      0.411028      0.718160     Biso  1.000000 W
   W4         1.0     0.157778      0.894308      0.225969     Biso  1.000000 W
   W5         1.0     0.386315      0.149934      0.773966     Biso  1.000000 W
   W6         1.0     0.396606      0.159159      0.283361     Biso  1.000000 W
   W7         1.0     0.398962      0.637995      0.282500     Biso  1.000000 W
   W8         1.0     0.409642      0.648327      0.773217     Biso  1.000000 W
   W9         1.0     0.636977      0.896461      0.225264     Biso  1.000000 W
   W10        1.0     0.645570      0.386446      0.718231     Biso  1.000000 W
   W11        1.0     0.646486      0.907362      0.718243     Biso  1.000000 W
   W12        1.0     0.655407      0.396653      0.225405     Biso  1.000000 W
   W13        1.0     0.882209      0.645843      0.773744     Biso  1.000000 W
   W14        1.0     0.892865      0.655188      0.283064     Biso  1.000000 W
   W15        1.0     0.896768      0.140399      0.282713     Biso  1.000000 W
   W16        1.0     0.907027      0.150064      0.773349     Biso  1.000000 W
   O1         1.0    -0.003031      0.791645      0.713123     Biso  1.000000 O
   O2         1.0    -0.002900      0.503213      0.226030     Biso  1.000000 O
   O3         1.0     0.002562      0.997658      0.281895     Biso  1.000000 O
   O4         1.0     0.002001      0.299759      0.779106     Biso  1.000000 O
   O5         1.0     0.047822      0.550456      0.762756     Biso  1.000000 O
   O6         1.0     0.048296      0.250569      0.229397     Biso  1.000000 O
   O7         1.0     0.049335      0.749269      0.278067     Biso  1.000000 O
   O8         1.0     0.051698      0.049507      0.731214     Biso  1.000000 O
   O9         1.0     0.121790      0.399246      0.492242     Biso  1.000000 O
   O10        1.0     0.124283      0.890824     -0.007787     Biso  1.000000 O
   O11        1.0     0.175566      0.404456     -0.008037     Biso  1.000000 O
   O12        1.0     0.175984      0.896788      0.492369     Biso  1.000000 O
   O13        1.0     0.247422      0.253218      0.730062     Biso  1.000000 O
   O14        1.0     0.249215      0.545755      0.278868     Biso  1.000000 O
   O15        1.0     0.251454      0.051149      0.230242     Biso  1.000000 O
   O16        1.0     0.251588      0.745700      0.760743     Biso  1.000000 O
   O17        1.0     0.293520      0.300093      0.282930     Biso  1.000000 O
   O18        1.0     0.294003      0.998695      0.779161     Biso  1.000000 O
   O19        1.0     0.298549      0.791262      0.226823     Biso  1.000000 O
   O20        1.0     0.298560      0.503133      0.712565     Biso  1.000000 O
   O21        1.0     0.392890      0.125138      0.508591     Biso  1.000000 O
   O22        1.0     0.396898      0.620386      0.007709     Biso  1.000000 O
   O23        1.0     0.398358      0.178372      0.008236     Biso  1.000000 O
   O24        1.0     0.403562      0.672234      0.507870     Biso  1.000000 O
   O25        1.0     0.496920      1.003360      0.226171     Biso  1.000000 O
   O26        1.0     0.497244      0.295125      0.712897     Biso  1.000000 O
   O27        1.0     0.501429      0.796545      0.778540     Biso  1.000000 O
   O28        1.0     0.502483      0.497682      0.281170     Biso  1.000000 O
   O29        1.0     0.544383      0.053084      0.761650     Biso  1.000000 O
   O30        1.0     0.544391      0.746788      0.229322     Biso  1.000000 O
   O31        1.0     0.546534      0.251927      0.278910     Biso  1.000000 O
   O32        1.0     0.548361      0.544834      0.731248     Biso  1.000000 O
   O33        1.0     0.618553      0.895008      0.492069     Biso  1.000000 O
   O34        1.0     0.621478      0.392562     -0.008176     Biso  1.000000 O
   O35        1.0     0.671109      0.900758     -0.008236     Biso  1.000000 O
   O36        1.0     0.673438      0.399300      0.492038     Biso  1.000000 O
   O37        1.0     0.743715      0.749135      0.730810     Biso  1.000000 O
   O38        1.0     0.746608      0.048273      0.278523     Biso  1.000000 O
   O39        1.0     0.747882      0.546802      0.229410     Biso  1.000000 O
   O40        1.0     0.749023      0.247811      0.760623     Biso  1.000000 O
   O41        1.0     0.789723      0.795906      0.281987     Biso  1.000000 O
   O42        1.0     0.790726      0.497626      0.779051     Biso  1.000000 O
   O43        1.0     0.795299      1.002070      0.712958     Biso  1.000000 O
   O44        1.0     0.795838      0.293516      0.226575     Biso  1.000000 O
   O45        1.0     0.888605      0.621197      0.508341     Biso  1.000000 O
   O46        1.0     0.894487      0.122425      0.007844     Biso  1.000000 O
   O47        1.0     0.895124      0.673872      0.008078     Biso  1.000000 O
   O48        1.0     0.900752      0.174491      0.508094     Biso  1.000000 O
