#======================================================================

# CRYSTAL DATA

#----------------------------------------------------------------------

data_VESTA_phase_1


_chemical_name_common                  ''
_cell_length_a                         10.47970
_cell_length_b                         10.48730
_cell_length_c                         7.75188
_cell_angle_alpha                      90
_cell_angle_beta                       90
_cell_angle_gamma                      90
_space_group_name_H-M_alt              'P 1'
_space_group_IT_number                 1

loop_
_space_group_symop_operation_xyz
   'x, y, z'

loop_
   _atom_site_label
   _atom_site_occupancy
   _atom_site_fract_x
   _atom_site_fract_y
   _atom_site_fract_z
   _atom_site_adp_type
   _atom_site_B_iso_or_equiv
   _atom_site_type_symbol
   W1         1.0     0.139161      0.149934      0.773966     Biso  1.000000 W
   W2         1.0     0.149472      0.159159      0.283361     Biso  1.000000 W
   W3         1.0     0.151832      0.637995      0.282500     Biso  1.000000 W
   W4         1.0     0.162533      0.648327      0.773217     Biso  1.000000 W
   W5         1.0     0.390307      0.896461      0.225264     Biso  1.000000 W
   W6         1.0     0.398917      0.386446      0.718231     Biso  1.000000 W
   W7         1.0     0.399835      0.907362      0.718243     Biso  1.000000 W
   W8         1.0     0.408773      0.396653      0.225405     Biso  1.000000 W
   W9         1.0     0.636013      0.645843      0.773744     Biso  1.000000 W
   W10        1.0     0.646689      0.655188      0.283064     Biso  1.000000 W
   W11        1.0     0.650599      0.140399      0.282713     Biso  1.000000 W
   W12        1.0     0.660878      0.150064      0.773349     Biso  1.000000 W
   W13        1.0     0.888757      0.399473      0.225654     Biso  1.000000 W
   W14        1.0     0.896560      0.881774      0.718351     Biso  1.000000 W
   W15        1.0     0.897655      0.409642      0.718528     Biso  1.000000 W
   W16        1.0     0.906479      0.891954      0.225382     Biso  1.000000 W
   O1         1.0    -0.002171      0.252258      0.730632     Biso  1.000000 O
   O2         1.0    -0.000073      0.544793      0.278488     Biso  1.000000 O
   O3         1.0     0.001872      0.050015      0.229852     Biso  1.000000 O
   O4         1.0     0.002087      0.744318      0.761224     Biso  1.000000 O
   O5         1.0     0.046186      0.300093      0.282930     Biso  1.000000 O
   O6         1.0     0.046671      0.998695      0.779161     Biso  1.000000 O
   O7         1.0     0.051225      0.791262      0.226823     Biso  1.000000 O
   O8         1.0     0.051236      0.503133      0.712565     Biso  1.000000 O
   O9         1.0     0.145749      0.125138      0.508591     Biso  1.000000 O
   O10        1.0     0.149765      0.620386      0.007709     Biso  1.000000 O
   O11        1.0     0.151227      0.178372      0.008236     Biso  1.000000 O
   O12        1.0     0.156441      0.672234      0.507870     Biso  1.000000 O
   O13        1.0     0.249979      1.003360      0.226171     Biso  1.000000 O
   O14        1.0     0.250304      0.295125      0.712897     Biso  1.000000 O
   O15        1.0     0.254497      0.796545      0.778540     Biso  1.000000 O
   O16        1.0     0.255553      0.497682      0.281170     Biso  1.000000 O
   O17        1.0     0.297534      0.053084      0.761650     Biso  1.000000 O
   O18        1.0     0.297542      0.746788      0.229322     Biso  1.000000 O
   O19        1.0     0.299690      0.251927      0.278910     Biso  1.000000 O
   O20        1.0     0.301520      0.544834      0.731248     Biso  1.000000 O
   O21        1.0     0.371848      0.895008      0.492069     Biso  1.000000 O
   O22        1.0     0.374778      0.392562     -0.008176     Biso  1.000000 O
   O23        1.0     0.424505      0.900758     -0.008236     Biso  1.000000 O
   O24        1.0     0.426838      0.399300      0.492038     Biso  1.000000 O
   O25        1.0     0.497251      0.749135      0.730810     Biso  1.000000 O
   O26        1.0     0.500150      0.048273      0.278523     Biso  1.000000 O
   O27        1.0     0.501426      0.546802      0.229410     Biso  1.000000 O
   O28        1.0     0.502569      0.247811      0.760623     Biso  1.000000 O
   O29        1.0     0.543348      0.795906      0.281987     Biso  1.000000 O
   O30        1.0     0.544353      0.497626      0.779051     Biso  1.000000 O
   O31        1.0     0.548934      1.002070      0.712958     Biso  1.000000 O
   O32        1.0     0.549475      0.293516      0.226575     Biso  1.000000 O
   O33        1.0     0.642421      0.621197      0.508341     Biso  1.000000 O
   O34        1.0     0.648315      0.122425      0.007844     Biso  1.000000 O
   O35        1.0     0.648952      0.673872      0.008078     Biso  1.000000 O
   O36        1.0     0.654591      0.174491      0.508094     Biso  1.000000 O
   O37        1.0     0.747772      0.502578      0.226676     Biso  1.000000 O
   O38        1.0     0.747956      0.790472      0.712732     Biso  1.000000 O
   O39        1.0     0.752874      0.298404      0.778692     Biso  1.000000 O
   O40        1.0     0.753659      0.996636      0.281708     Biso  1.000000 O
   O41        1.0     0.794703      0.548501      0.760987     Biso  1.000000 O
   O42        1.0     0.795683      0.249443      0.229824     Biso  1.000000 O
   O43        1.0     0.797023      0.747588      0.279208     Biso  1.000000 O
   O44        1.0     0.799874      0.046778      0.730881     Biso  1.000000 O
   O45        1.0     0.870349      0.397195      0.492208     Biso  1.000000 O
   O46        1.0     0.872029      0.888088     -0.008068     Biso  1.000000 O
   O47        1.0     0.922343      0.403200     -0.008077     Biso  1.000000 O
   O48        1.0     0.924852      0.894284      0.492232     Biso  1.000000 O
