#======================================================================

# CRYSTAL DATA

#----------------------------------------------------------------------

data_VESTA_phase_1


_chemical_name_common                  ''
_cell_length_a                         10.50150
_cell_length_b                         10.49160
_cell_length_c                         7.75139
_cell_angle_alpha                      90
_cell_angle_beta                       90
_cell_angle_gamma                      90
_space_group_name_H-M_alt              'P 1'
_space_group_IT_number                 1

loop_
_space_group_symop_operation_xyz
   'x, y, z'

loop_
   _atom_site_label
   _atom_site_occupancy
   _atom_site_fract_x
   _atom_site_fract_y
   _atom_site_fract_z
   _atom_site_adp_type
   _atom_site_B_iso_or_equiv
   _atom_site_type_symbol
   W1         1.0     0.140408      0.896504      0.225278     Biso  1.000000 W
   W2         1.0     0.149000      0.386699      0.718275     Biso  1.000000 W
   W3         1.0     0.149916      0.907400      0.718288     Biso  1.000000 W
   W4         1.0     0.158835      0.396903      0.225419     Biso  1.000000 W
   W5         1.0     0.385603      0.645989      0.773793     Biso  1.000000 W
   W6         1.0     0.396257      0.655331      0.283082     Biso  1.000000 W
   W7         1.0     0.400159      0.140754      0.282730     Biso  1.000000 W
   W8         1.0     0.410417      0.150415      0.773397     Biso  1.000000 W
   W9         1.0     0.637822      0.399722      0.225668     Biso  1.000000 W
   W10        1.0     0.645609      0.881822      0.718395     Biso  1.000000 W
   W11        1.0     0.646702      0.409886      0.718572     Biso  1.000000 W
   W12        1.0     0.655508      0.891998      0.225396     Biso  1.000000 W
   W13        1.0     0.882797      0.148295      0.773884     Biso  1.000000 W
   W14        1.0     0.893389      0.157773      0.283128     Biso  1.000000 W
   W15        1.0     0.897609      0.636344      0.283051     Biso  1.000000 W
   W16        1.0     0.906442      0.645360      0.773641     Biso  1.000000 W
   O1         1.0    -0.002830      1.002580      0.226462     Biso  1.000000 O
   O2         1.0    -0.002276      0.294052      0.712822     Biso  1.000000 O
   O3         1.0     0.001744      0.795032      0.778522     Biso  1.000000 O
   O4         1.0     0.002967      0.496687      0.282159     Biso  1.000000 O
   O5         1.0     0.047827      0.053475      0.761697     Biso  1.000000 O
   O6         1.0     0.047835      0.746893      0.229336     Biso  1.000000 O
   O7         1.0     0.049979      0.252236      0.278928     Biso  1.000000 O
   O8         1.0     0.051805      0.545022      0.731293     Biso  1.000000 O
   O9         1.0     0.121987      0.895051      0.492100     Biso  1.000000 O
   O10        1.0     0.124911      0.392813     -0.008146     Biso  1.000000 O
   O11        1.0     0.174534      0.900799     -0.008205     Biso  1.000000 O
   O12        1.0     0.176863      0.399548      0.492069     Biso  1.000000 O
   O13        1.0     0.247130      0.749238      0.730855     Biso  1.000000 O
   O14        1.0     0.250022      0.048666      0.278540     Biso  1.000000 O
   O15        1.0     0.251296      0.546990      0.229424     Biso  1.000000 O
   O16        1.0     0.252437      0.248121      0.760671     Biso  1.000000 O
   O17        1.0     0.293131      0.795990      0.282004     Biso  1.000000 O
   O18        1.0     0.294134      0.497833      0.779100     Biso  1.000000 O
   O19        1.0     0.298706      1.002270      0.713003     Biso  1.000000 O
   O20        1.0     0.299245      0.293808      0.226589     Biso  1.000000 O
   O21        1.0     0.391998      0.621353      0.508372     Biso  1.000000 O
   O22        1.0     0.397879      0.122788      0.007876     Biso  1.000000 O
   O23        1.0     0.398516      0.674007      0.008110     Biso  1.000000 O
   O24        1.0     0.404143      0.174832      0.508126     Biso  1.000000 O
   O25        1.0     0.497130      0.502783      0.226690     Biso  1.000000 O
   O26        1.0     0.497314      0.790559      0.712776     Biso  1.000000 O
   O27        1.0     0.502221      0.298694      0.778741     Biso  1.000000 O
   O28        1.0     0.503005      0.996844      0.281725     Biso  1.000000 O
   O29        1.0     0.543963      0.548688      0.761034     Biso  1.000000 O
   O30        1.0     0.544942      0.249753      0.229838     Biso  1.000000 O
   O31        1.0     0.546279      0.747692      0.279225     Biso  1.000000 O
   O32        1.0     0.549124      0.047171      0.730927     Biso  1.000000 O
   O33        1.0     0.619452      0.397444      0.492239     Biso  1.000000 O
   O34        1.0     0.621129      0.888134     -0.008037     Biso  1.000000 O
   O35        1.0     0.671338      0.403447     -0.008047     Biso  1.000000 O
   O36        1.0     0.673843      0.894328      0.492263     Biso  1.000000 O
   O37        1.0     0.744500      0.251607      0.731248     Biso  1.000000 O
   O38        1.0     0.746895      0.544021      0.278124     Biso  1.000000 O
   O39        1.0     0.748539      0.049275      0.229475     Biso  1.000000 O
   O40        1.0     0.748834      0.743042      0.761752     Biso  1.000000 O
   O41        1.0     0.790310      0.298300      0.281826     Biso  1.000000 O
   O42        1.0     0.791040      0.996431      0.779296     Biso  1.000000 O
   O43        1.0     0.795624      0.500745      0.713506     Biso  1.000000 O
   O44        1.0     0.795686      0.788856      0.226051     Biso  1.000000 O
   O45        1.0     0.889134      0.123688      0.508435     Biso  1.000000 O
   O46        1.0     0.895241      0.617533      0.008140     Biso  1.000000 O
   O47        1.0     0.895914      0.176321      0.008205     Biso  1.000000 O
   O48        1.0     0.900063      0.670114      0.508517     Biso  1.000000 O
