#======================================================================

# CRYSTAL DATA

#----------------------------------------------------------------------

data_VESTA_phase_1


_chemical_name_common                  ''
_cell_length_a                         10.48580
_cell_length_b                         10.47800
_cell_length_c                         7.75016
_cell_angle_alpha                      90
_cell_angle_beta                       90
_cell_angle_gamma                      90
_space_group_name_H-M_alt              'P 1'
_space_group_IT_number                 1

loop_
_space_group_symop_operation_xyz
   'x, y, z'

loop_
   _atom_site_label
   _atom_site_occupancy
   _atom_site_fract_x
   _atom_site_fract_y
   _atom_site_fract_z
   _atom_site_adp_type
   _atom_site_B_iso_or_equiv
   _atom_site_type_symbol
   W1         1.0     0.138681      0.646827      0.773757     Biso  1.000000 W
   W2         1.0     0.149351      0.656181      0.282968     Biso  1.000000 W
   W3         1.0     0.153259      0.140937      0.282617     Biso  1.000000 W
   W4         1.0     0.163532      0.150610      0.773361     Biso  1.000000 W
   W5         1.0     0.391277      0.400240      0.225545     Biso  1.000000 W
   W6         1.0     0.399077      0.882966      0.718351     Biso  1.000000 W
   W7         1.0     0.400171      0.410418      0.718528     Biso  1.000000 W
   W8         1.0     0.408990      0.893155      0.225273     Biso  1.000000 W
   W9         1.0     0.636620      0.148487      0.773848     Biso  1.000000 W
   W10        1.0     0.647227      0.157977      0.283014     Biso  1.000000 W
   W11        1.0     0.651453      0.637170      0.282937     Biso  1.000000 W
   W12        1.0     0.660300      0.646197      0.773605     Biso  1.000000 W
   W13        1.0     0.889104      0.897097      0.226113     Biso  1.000000 W
   W14        1.0     0.896683      0.385225      0.718506     Biso  1.000000 W
   W15        1.0     0.897394      0.905776      0.719059     Biso  1.000000 W
   W16        1.0     0.906896      0.394612      0.225507     Biso  1.000000 W
   O1         1.0    -0.002307      0.748700      0.730917     Biso  1.000000 O
   O2         1.0     0.000851      0.047711      0.277607     Biso  1.000000 O
   O3         1.0     0.001562      0.546540      0.229465     Biso  1.000000 O
   O4         1.0     0.002658      0.247026      0.762043     Biso  1.000000 O
   O5         1.0     0.046070      0.797022      0.281890     Biso  1.000000 O
   O6         1.0     0.047075      0.498479      0.779065     Biso  1.000000 O
   O7         1.0     0.051653      1.002930      0.712957     Biso  1.000000 O
   O8         1.0     0.052194      0.294189      0.226466     Biso  1.000000 O
   O9         1.0     0.145085      0.622159      0.508294     Biso  1.000000 O
   O10        1.0     0.150975      0.122947      0.007798     Biso  1.000000 O
   O11        1.0     0.151613      0.674881      0.008032     Biso  1.000000 O
   O12        1.0     0.157248      0.175059      0.508048     Biso  1.000000 O
   O13        1.0     0.250375      0.503436      0.226567     Biso  1.000000 O
   O14        1.0     0.250559      0.791584      0.712731     Biso  1.000000 O
   O15        1.0     0.255473      0.299081      0.778706     Biso  1.000000 O
   O16        1.0     0.256259      0.997488      0.281611     Biso  1.000000 O
   O17        1.0     0.297278      0.549400      0.760996     Biso  1.000000 O
   O18        1.0     0.298258      0.250077      0.229716     Biso  1.000000 O
   O19        1.0     0.299598      0.748662      0.279111     Biso  1.000000 O
   O20        1.0     0.302447      0.047233      0.730884     Biso  1.000000 O
   O21        1.0     0.372880      0.397960      0.492158     Biso  1.000000 O
   O22        1.0     0.374560      0.889286     -0.008118     Biso  1.000000 O
   O23        1.0     0.424844      0.403970     -0.008127     Biso  1.000000 O
   O24        1.0     0.427352      0.895488      0.492182     Biso  1.000000 O
   O25        1.0     0.498116      0.251933      0.731205     Biso  1.000000 O
   O26        1.0     0.500514      0.544726      0.278010     Biso  1.000000 O
   O27        1.0     0.502161      0.049339      0.229353     Biso  1.000000 O
   O28        1.0     0.502456      0.744006      0.761714     Biso  1.000000 O
   O29        1.0     0.543994      0.298687      0.281712     Biso  1.000000 O
   O30        1.0     0.544725      0.997075      0.779261     Biso  1.000000 O
   O31        1.0     0.549316      0.501395      0.713461     Biso  1.000000 O
   O32        1.0     0.549378      0.789879      0.225928     Biso  1.000000 O
   O33        1.0     0.642966      0.123848      0.508357     Biso  1.000000 O
   O34        1.0     0.649082      0.618334      0.008062     Biso  1.000000 O
   O35        1.0     0.649756      0.176549      0.008127     Biso  1.000000 O
   O36        1.0     0.653912      0.670983      0.508439     Biso  1.000000 O
   O37        1.0     0.747958      1.002250      0.226617     Biso  1.000000 O
   O38        1.0     0.748743      0.293067      0.712657     Biso  1.000000 O
   O39        1.0     0.752603      0.794463      0.778420     Biso  1.000000 O
   O40        1.0     0.753998      0.496128      0.283016     Biso  1.000000 O
   O41        1.0     0.795196      0.050668      0.761358     Biso  1.000000 O
   O42        1.0     0.795674      0.746189      0.231171     Biso  1.000000 O
   O43        1.0     0.797620      0.250305      0.279461     Biso  1.000000 O
   O44        1.0     0.799725      0.542981      0.730132     Biso  1.000000 O
   O45        1.0     0.870533      0.894148      0.492483     Biso  1.000000 O
   O46        1.0     0.871943      0.391372     -0.007727     Biso  1.000000 O
   O47        1.0     0.921821      0.898904     -0.007820     Biso  1.000000 O
   O48        1.0     0.926080      0.396724      0.492570     Biso  1.000000 O
