#======================================================================

# CRYSTAL DATA

#----------------------------------------------------------------------

data_VESTA_phase_1


_chemical_name_common                  ''
_cell_length_a                         10.49920
_cell_length_b                         10.49720
_cell_length_c                         7.75280
_cell_angle_alpha                      90
_cell_angle_beta                       90
_cell_angle_gamma                      90
_space_group_name_H-M_alt              'P 1'
_space_group_IT_number                 1

loop_
_space_group_symop_operation_xyz
   'x, y, z'

loop_
   _atom_site_label
   _atom_site_occupancy
   _atom_site_fract_x
   _atom_site_fract_y
   _atom_site_fract_z
   _atom_site_adp_type
   _atom_site_B_iso_or_equiv
   _atom_site_type_symbol
   W1         1.0     0.140722      0.402011      0.225469     Biso  1.000000 W
   W2         1.0     0.148511      0.883854      0.718107     Biso  1.000000 W
   W3         1.0     0.149604      0.412170      0.718284     Biso  1.000000 W
   W4         1.0     0.158412      0.894025      0.225197     Biso  1.000000 W
   W5         1.0     0.385751      0.150719      0.773586     Biso  1.000000 W
   W6         1.0     0.396345      0.160191      0.282918     Biso  1.000000 W
   W7         1.0     0.400565      0.638507      0.282841     Biso  1.000000 W
   W8         1.0     0.409401      0.647518      0.773342     Biso  1.000000 W
   W9         1.0     0.637912      0.897960      0.226036     Biso  1.000000 W
   W10        1.0     0.645481      0.387023      0.718262     Biso  1.000000 W
   W11        1.0     0.646191      0.906622      0.718815     Biso  1.000000 W
   W12        1.0     0.655681      0.396393      0.225431     Biso  1.000000 W
   W13        1.0     0.882553      0.645157      0.773830     Biso  1.000000 W
   W14        1.0     0.892271      0.654704      0.283096     Biso  1.000000 W
   W15        1.0     0.899170      0.141856      0.283264     Biso  1.000000 W
   W16        1.0     0.905542      0.150853      0.773876     Biso  1.000000 W
   O1         1.0    -0.003346      0.503771      0.226131     Biso  1.000000 O
   O2         1.0    -0.002922      0.791217      0.712151     Biso  1.000000 O
   O3         1.0     0.001889      0.299556      0.778146     Biso  1.000000 O
   O4         1.0     0.002752      0.997624      0.283060     Biso  1.000000 O
   O5         1.0     0.046843      0.550898      0.760738     Biso  1.000000 O
   O6         1.0     0.047822      0.252122      0.229638     Biso  1.000000 O
   O7         1.0     0.049160      0.749795      0.279016     Biso  1.000000 O
   O8         1.0     0.052005      0.049649      0.730636     Biso  1.000000 O
   O9         1.0     0.122348      0.399735      0.491991     Biso  1.000000 O
   O10        1.0     0.124026      0.890163     -0.008285     Biso  1.000000 O
   O11        1.0     0.174246      0.405734     -0.008294     Biso  1.000000 O
   O12        1.0     0.176751      0.896353      0.492015     Biso  1.000000 O
   O13        1.0     0.247424      0.253975      0.730957     Biso  1.000000 O
   O14        1.0     0.249819      0.546233      0.277915     Biso  1.000000 O
   O15        1.0     0.251463      0.051751      0.229275     Biso  1.000000 O
   O16        1.0     0.251758      0.745148      0.761455     Biso  1.000000 O
   O17        1.0     0.293244      0.300644      0.281616     Biso  1.000000 O
   O18        1.0     0.293973      0.998668      0.778996     Biso  1.000000 O
   O19        1.0     0.298558      0.502981      0.713218     Biso  1.000000 O
   O20        1.0     0.298621      0.790938      0.225851     Biso  1.000000 O
   O21        1.0     0.392089      0.126125      0.508185     Biso  1.000000 O
   O22        1.0     0.398197      0.619706      0.007890     Biso  1.000000 O
   O23        1.0     0.398870      0.178729      0.007955     Biso  1.000000 O
   O24        1.0     0.403021      0.672258      0.508266     Biso  1.000000 O
   O25        1.0     0.496946      1.003830      0.226540     Biso  1.000000 O
   O26        1.0     0.497730      0.295034      0.712415     Biso  1.000000 O
   O27        1.0     0.501586      0.795513      0.778156     Biso  1.000000 O
   O28        1.0     0.502979      0.497723      0.282920     Biso  1.000000 O
   O29        1.0     0.544124      0.053078      0.761099     Biso  1.000000 O
   O30        1.0     0.544602      0.747327      0.231093     Biso  1.000000 O
   O31        1.0     0.546545      0.252350      0.279366     Biso  1.000000 O
   O32        1.0     0.548648      0.544491      0.729885     Biso  1.000000 O
   O33        1.0     0.619364      0.895016      0.492315     Biso  1.000000 O
   O34        1.0     0.620773      0.393160     -0.007894     Biso  1.000000 O
   O35        1.0     0.670587      0.899763     -0.007987     Biso  1.000000 O
   O36        1.0     0.674841      0.398501      0.492403     Biso  1.000000 O
   O37        1.0     0.744058      0.748326      0.730774     Biso  1.000000 O
   O38        1.0     0.747474      0.049111      0.276693     Biso  1.000000 O
   O39        1.0     0.747619      0.546886      0.229549     Biso  1.000000 O
   O40        1.0     0.748666      0.247663      0.763194     Biso  1.000000 O
   O41        1.0     0.790015      0.795568      0.282354     Biso  1.000000 O
   O42        1.0     0.791054      0.496962      0.779670     Biso  1.000000 O
   O43        1.0     0.795480      1.001380      0.714802     Biso  1.000000 O
   O44        1.0     0.795797      0.293547      0.225266     Biso  1.000000 O
   O45        1.0     0.888712      0.620362      0.508264     Biso  1.000000 O
   O46        1.0     0.895304      0.673911      0.008075     Biso  1.000000 O
   O47        1.0     0.896610      0.122204      0.008294     Biso  1.000000 O
   O48        1.0     0.899104      0.175038      0.508814     Biso  1.000000 O
