#======================================================================

# CRYSTAL DATA

#----------------------------------------------------------------------

data_VESTA_phase_1


_chemical_name_common                  ''
_cell_length_a                         10.46370
_cell_length_b                         10.49720
_cell_length_c                         7.75062
_cell_angle_alpha                      90
_cell_angle_beta                       90
_cell_angle_gamma                      90
_space_group_name_H-M_alt              'P 1'
_space_group_IT_number                 1

loop_
_space_group_symop_operation_xyz
   'x, y, z'

loop_
   _atom_site_label
   _atom_site_occupancy
   _atom_site_fract_x
   _atom_site_fract_y
   _atom_site_fract_z
   _atom_site_adp_type
   _atom_site_B_iso_or_equiv
   _atom_site_type_symbol
   W1         1.0     0.138797      0.150719      0.773522     Biso  1.000000 W
   W2         1.0     0.149427      0.160191      0.282716     Biso  1.000000 W
   W3         1.0     0.153662      0.638507      0.282640     Biso  1.000000 W
   W4         1.0     0.162527      0.647518      0.773279     Biso  1.000000 W
   W5         1.0     0.391816      0.897960      0.225819     Biso  1.000000 W
   W6         1.0     0.399410      0.387023      0.718183     Biso  1.000000 W
   W7         1.0     0.400123      0.906622      0.718736     Biso  1.000000 W
   W8         1.0     0.409645      0.396393      0.225213     Biso  1.000000 W
   W9         1.0     0.637288      0.645157      0.773766     Biso  1.000000 W
   W10        1.0     0.647039      0.654704      0.282895     Biso  1.000000 W
   W11        1.0     0.653962      0.141856      0.283063     Biso  1.000000 W
   W12        1.0     0.660355      0.150853      0.773812     Biso  1.000000 W
   W13        1.0     0.891512      0.402324      0.226051     Biso  1.000000 W
   W14        1.0     0.896211      0.883369      0.717767     Biso  1.000000 W
   W15        1.0     0.899469      0.408744      0.718707     Biso  1.000000 W
   W16        1.0     0.906851      0.890183      0.225046     Biso  1.000000 W
   O1         1.0    -0.001426      0.252309      0.730136     Biso  1.000000 O
   O2         1.0     0.001202      0.545442      0.276149     Biso  1.000000 O
   O3         1.0     0.001781      0.050551      0.229202     Biso  1.000000 O
   O4         1.0     0.002158      0.744011      0.763213     Biso  1.000000 O
   O5         1.0     0.045975      0.300644      0.281415     Biso  1.000000 O
   O6         1.0     0.046707      0.998669      0.778934     Biso  1.000000 O
   O7         1.0     0.051308      0.502981      0.713138     Biso  1.000000 O
   O8         1.0     0.051371      0.790938      0.225634     Biso  1.000000 O
   O9         1.0     0.145157      0.126125      0.508047     Biso  1.000000 O
   O10        1.0     0.151286      0.619706      0.007752     Biso  1.000000 O
   O11        1.0     0.151961      0.178729      0.007817     Biso  1.000000 O
   O12        1.0     0.156126      0.672259      0.508128     Biso  1.000000 O
   O13        1.0     0.250370      1.003830      0.226322     Biso  1.000000 O
   O14        1.0     0.251157      0.295034      0.712334     Biso  1.000000 O
   O15        1.0     0.255026      0.795513      0.778094     Biso  1.000000 O
   O16        1.0     0.256424      0.497723      0.282719     Biso  1.000000 O
   O17        1.0     0.297709      0.053078      0.761032     Biso  1.000000 O
   O18        1.0     0.298188      0.747327      0.230877     Biso  1.000000 O
   O19        1.0     0.300137      0.252350      0.279163     Biso  1.000000 O
   O20        1.0     0.302247      0.544491      0.729809     Biso  1.000000 O
   O21        1.0     0.373205      0.895016      0.492173     Biso  1.000000 O
   O22        1.0     0.374618      0.393160     -0.008037     Biso  1.000000 O
   O23        1.0     0.424601      0.899763     -0.008130     Biso  1.000000 O
   O24        1.0     0.428869      0.398501      0.492261     Biso  1.000000 O
   O25        1.0     0.498322      0.748326      0.730698     Biso  1.000000 O
   O26        1.0     0.501749      0.049111      0.276490     Biso  1.000000 O
   O27        1.0     0.501895      0.546886      0.229333     Biso  1.000000 O
   O28        1.0     0.502946      0.247663      0.763127     Biso  1.000000 O
   O29        1.0     0.544436      0.795568      0.282153     Biso  1.000000 O
   O30        1.0     0.545478      0.496962      0.779609     Biso  1.000000 O
   O31        1.0     0.549919      1.001380      0.714722     Biso  1.000000 O
   O32        1.0     0.550237      0.293547      0.225049     Biso  1.000000 O
   O33        1.0     0.643468      0.620362      0.508126     Biso  1.000000 O
   O34        1.0     0.650082      0.673911      0.007936     Biso  1.000000 O
   O35        1.0     0.651392      0.122204      0.008156     Biso  1.000000 O
   O36        1.0     0.653895      0.175038      0.508676     Biso  1.000000 O
   O37        1.0     0.748420      0.502525      0.225555     Biso  1.000000 O
   O38        1.0     0.749085      0.789794      0.711732     Biso  1.000000 O
   O39        1.0     0.753816      0.298076      0.777788     Biso  1.000000 O
   O40        1.0     0.754761      0.996166      0.284404     Biso  1.000000 O
   O41        1.0     0.796054      0.547720      0.761816     Biso  1.000000 O
   O42        1.0     0.797190      0.250375      0.232585     Biso  1.000000 O
   O43        1.0     0.798456      0.746611      0.279434     Biso  1.000000 O
   O44        1.0     0.800688      0.047318      0.728340     Biso  1.000000 O
   O45        1.0     0.871217      0.888418     -0.007942     Biso  1.000000 O
   O46        1.0     0.871924      0.398682      0.492173     Biso  1.000000 O
   O47        1.0     0.923462      0.401628     -0.008156     Biso  1.000000 O
   O48        1.0     0.927599      0.892714      0.492224     Biso  1.000000 O
