#======================================================================

# CRYSTAL DATA

#----------------------------------------------------------------------

data_VESTA_phase_1


_chemical_name_common                  ''
_cell_length_a                         10.48690
_cell_length_b                         10.50490
_cell_length_c                         7.75062
_cell_angle_alpha                      90
_cell_angle_beta                       90
_cell_angle_gamma                      90
_space_group_name_H-M_alt              'P 1'
_space_group_IT_number                 1

loop_
_space_group_symop_operation_xyz
   'x, y, z'

loop_
   _atom_site_label
   _atom_site_occupancy
   _atom_site_fract_x
   _atom_site_fract_y
   _atom_site_fract_z
   _atom_site_adp_type
   _atom_site_B_iso_or_equiv
   _atom_site_type_symbol
   W1         1.0     0.141503      0.898034      0.225819     Biso  1.000000 W
   W2         1.0     0.149081      0.387471      0.718183     Biso  1.000000 W
   W3         1.0     0.149792      0.906691      0.718736     Biso  1.000000 W
   W4         1.0     0.159293      0.396834      0.225213     Biso  1.000000 W
   W5         1.0     0.386431      0.645416      0.773766     Biso  1.000000 W
   W6         1.0     0.396161      0.654957      0.282895     Biso  1.000000 W
   W7         1.0     0.403068      0.142483      0.283063     Biso  1.000000 W
   W8         1.0     0.409447      0.151473      0.773812     Biso  1.000000 W
   W9         1.0     0.640092      0.402761      0.226051     Biso  1.000000 W
   W10        1.0     0.644781      0.883455      0.717767     Biso  1.000000 W
   W11        1.0     0.648032      0.409176      0.718707     Biso  1.000000 W
   W12        1.0     0.655397      0.890264      0.225046     Biso  1.000000 W
   W13        1.0     0.884464      0.147690      0.773677     Biso  1.000000 W
   W14        1.0     0.891903      0.156934      0.282662     Biso  1.000000 W
   W15        1.0     0.901616      0.638918      0.282688     Biso  1.000000 W
   W16        1.0     0.904132      0.647755      0.773711     Biso  1.000000 W
   O1         1.0    -0.003037      1.002840      0.225160     Biso  1.000000 O
   O2         1.0    -0.001986      0.294301      0.711656     Biso  1.000000 O
   O3         1.0     0.002067      0.794597      0.777733     Biso  1.000000 O
   O4         1.0     0.003206      0.496677      0.284403     Biso  1.000000 O
   O5         1.0     0.047605      0.053770      0.761032     Biso  1.000000 O
   O6         1.0     0.048083      0.747512      0.230877     Biso  1.000000 O
   O7         1.0     0.050028      0.252896      0.279163     Biso  1.000000 O
   O8         1.0     0.052134      0.544823      0.729809     Biso  1.000000 O
   O9         1.0     0.122934      0.895092      0.492173     Biso  1.000000 O
   O10        1.0     0.124344      0.393603     -0.008037     Biso  1.000000 O
   O11        1.0     0.174217      0.899837     -0.008130     Biso  1.000000 O
   O12        1.0     0.178475      0.398941      0.492261     Biso  1.000000 O
   O13        1.0     0.247773      0.748510      0.730698     Biso  1.000000 O
   O14        1.0     0.251193      0.049806      0.276490     Biso  1.000000 O
   O15        1.0     0.251339      0.547217      0.229333     Biso  1.000000 O
   O16        1.0     0.252387      0.248213      0.763127     Biso  1.000000 O
   O17        1.0     0.293785      0.795717      0.282153     Biso  1.000000 O
   O18        1.0     0.294825      0.497330      0.779609     Biso  1.000000 O
   O19        1.0     0.299256      1.001740      0.714722     Biso  1.000000 O
   O20        1.0     0.299574      0.294063      0.225049     Biso  1.000000 O
   O21        1.0     0.392598      0.620640      0.508126     Biso  1.000000 O
   O22        1.0     0.399197      0.674149      0.007936     Biso  1.000000 O
   O23        1.0     0.400505      0.122845      0.008156     Biso  1.000000 O
   O24        1.0     0.403002      0.175640      0.508676     Biso  1.000000 O
   O25        1.0     0.497317      0.502888      0.225555     Biso  1.000000 O
   O26        1.0     0.497981      0.789947      0.711732     Biso  1.000000 O
   O27        1.0     0.502701      0.298588      0.777788     Biso  1.000000 O
   O28        1.0     0.503644      0.996534      0.284404     Biso  1.000000 O
   O29        1.0     0.544846      0.548051      0.761816     Biso  1.000000 O
   O30        1.0     0.545979      0.250922      0.232585     Biso  1.000000 O
   O31        1.0     0.547242      0.746796      0.279434     Biso  1.000000 O
   O32        1.0     0.549469      0.048014      0.728340     Biso  1.000000 O
   O33        1.0     0.619842      0.888499     -0.007942     Biso  1.000000 O
   O34        1.0     0.620548      0.399121      0.492173     Biso  1.000000 O
   O35        1.0     0.671971      0.402066     -0.008156     Biso  1.000000 O
   O36        1.0     0.676099      0.892793      0.492224     Biso  1.000000 O
   O37        1.0     0.745494      0.251191      0.729391     Biso  1.000000 O
   O38        1.0     0.747850      0.050044      0.229347     Biso  1.000000 O
   O39        1.0     0.748305      0.743061      0.765037     Biso  1.000000 O
   O40        1.0     0.748340      0.544983      0.274585     Biso  1.000000 O
   O41        1.0     0.791056      0.298584      0.283206     Biso  1.000000 O
   O42        1.0     0.791651      0.995803      0.779944     Biso  1.000000 O
   O43        1.0     0.796375      0.788854      0.222927     Biso  1.000000 O
   O44        1.0     0.796869      0.500441      0.714639     Biso  1.000000 O
   O45        1.0     0.890030      0.122580      0.507764     Biso  1.000000 O
   O46        1.0     0.895663      0.177433      0.007675     Biso  1.000000 O
   O47        1.0     0.898141      0.671566      0.508293     Biso  1.000000 O
   O48        1.0     0.898477      0.617188      0.007692     Biso  1.000000 O
