#======================================================================

# CRYSTAL DATA

#----------------------------------------------------------------------

data_VESTA_phase_1


_chemical_name_common                  ''
_cell_length_a                         10.45900
_cell_length_b                         10.47910
_cell_length_c                         7.75554
_cell_angle_alpha                      90
_cell_angle_beta                       90
_cell_angle_gamma                      90
_space_group_name_H-M_alt              'P 1'
_space_group_IT_number                 1

loop_
_space_group_symop_operation_xyz
   'x, y, z'

loop_
   _atom_site_label
   _atom_site_occupancy
   _atom_site_fract_x
   _atom_site_fract_y
   _atom_site_fract_z
   _atom_site_adp_type
   _atom_site_B_iso_or_equiv
   _atom_site_type_symbol
   W1         1.0     0.139028      0.647004      0.773910     Biso  1.000000 W
   W2         1.0     0.148784      0.656568      0.283350     Biso  1.000000 W
   W3         1.0     0.155709      0.142833      0.283518     Biso  1.000000 W
   W4         1.0     0.162105      0.151846      0.773956     Biso  1.000000 W
   W5         1.0     0.393366      0.403751      0.226543     Biso  1.000000 W
   W6         1.0     0.398067      0.885628      0.717946     Biso  1.000000 W
   W7         1.0     0.401327      0.410182      0.718885     Biso  1.000000 W
   W8         1.0     0.408712      0.892453      0.225538     Biso  1.000000 W
   W9         1.0     0.638390      0.148053      0.773820     Biso  1.000000 W
   W10        1.0     0.645849      0.157320      0.283117     Biso  1.000000 W
   W11        1.0     0.655588      0.640489      0.283144     Biso  1.000000 W
   W12        1.0     0.658111      0.649348      0.773854     Biso  1.000000 W
   W13        1.0     0.892568      0.902361      0.226189     Biso  1.000000 W
   W14        1.0     0.894498      0.390150      0.716513     Biso  1.000000 W
   W15        1.0     0.899964      0.905226      0.718138     Biso  1.000000 W
   W16        1.0     0.904978      0.393312      0.224412     Biso  1.000000 W
   O1         1.0    -0.001380      0.749243      0.729510     Biso  1.000000 O
   O2         1.0     0.001715      0.049684      0.275465     Biso  1.000000 O
   O3         1.0     0.000715      0.547269      0.230084     Biso  1.000000 O
   O4         1.0     0.001838      0.248479      0.765409     Biso  1.000000 O
   O5         1.0     0.046135      0.797674      0.282609     Biso  1.000000 O
   O6         1.0     0.047177      0.498553      0.779749     Biso  1.000000 O
   O7         1.0     0.051620      1.002980      0.714903     Biso  1.000000 O
   O8         1.0     0.051939      0.294786      0.225541     Biso  1.000000 O
   O9         1.0     0.145211      0.622166      0.508438     Biso  1.000000 O
   O10        1.0     0.151828      0.675807      0.008249     Biso  1.000000 O
   O11        1.0     0.153139      0.123147      0.008469     Biso  1.000000 O
   O12        1.0     0.155643      0.176072      0.508988     Biso  1.000000 O
   O13        1.0     0.250210      0.504125      0.226046     Biso  1.000000 O
   O14        1.0     0.250875      0.791890      0.711915     Biso  1.000000 O
   O15        1.0     0.255608      0.299323      0.777929     Biso  1.000000 O
   O16        1.0     0.256554      0.997755      0.284858     Biso  1.000000 O
   O17        1.0     0.297866      0.549399      0.761967     Biso  1.000000 O
   O18        1.0     0.299002      0.251540      0.233073     Biso  1.000000 O
   O19        1.0     0.300268      0.748633      0.279891     Biso  1.000000 O
   O20        1.0     0.302501      0.048132      0.728512     Biso  1.000000 O
   O21        1.0     0.373062      0.890685     -0.007620     Biso  1.000000 O
   O22        1.0     0.373769      0.400103      0.492496     Biso  1.000000 O
   O23        1.0     0.425330      0.403055     -0.007834     Biso  1.000000 O
   O24        1.0     0.429469      0.894989      0.492546     Biso  1.000000 O
   O25        1.0     0.499049      0.251808      0.729562     Biso  1.000000 O
   O26        1.0     0.501411      0.050168      0.229836     Biso  1.000000 O
   O27        1.0     0.501868      0.744889      0.765186     Biso  1.000000 O
   O28        1.0     0.501902      0.546324      0.275046     Biso  1.000000 O
   O29        1.0     0.544733      0.299319      0.283661     Biso  1.000000 O
   O30        1.0     0.545329      0.997023      0.780084     Biso  1.000000 O
   O31        1.0     0.550066      0.790795      0.223421     Biso  1.000000 O
   O32        1.0     0.550562      0.501672      0.714820     Biso  1.000000 O
   O33        1.0     0.643971      0.122882      0.508077     Biso  1.000000 O
   O34        1.0     0.649619      0.177870      0.007988     Biso  1.000000 O
   O35        1.0     0.652104      0.673218      0.508605     Biso  1.000000 O
   O36        1.0     0.652440      0.618707      0.008004     Biso  1.000000 O
   O37        1.0     0.747772      1.002710      0.224491     Biso  1.000000 O
   O38        1.0     0.749091      0.293773      0.711161     Biso  1.000000 O
   O39        1.0     0.753349      0.795484      0.777513     Biso  1.000000 O
   O40        1.0     0.754234      0.496482      0.286541     Biso  1.000000 O
   O41        1.0     0.796369      0.050867      0.762535     Biso  1.000000 O
   O42        1.0     0.797383      0.747882      0.234064     Biso  1.000000 O
   O43        1.0     0.798211      0.249827      0.278474     Biso  1.000000 O
   O44        1.0     0.799632      0.545120      0.725085     Biso  1.000000 O
   O45        1.0     0.869340      0.394194     -0.008469     Biso  1.000000 O
   O46        1.0     0.871213      0.896994      0.491968     Biso  1.000000 O
   O47        1.0     0.923546      0.898921     -0.008215     Biso  1.000000 O
   O48        1.0     0.927960      0.395917      0.491687     Biso  1.000000 O
