#======================================================================

# CRYSTAL DATA

#----------------------------------------------------------------------

data_VESTA_phase_1


_chemical_name_common                  ''
_cell_length_a                         10.43350
_cell_length_b                         10.48440
_cell_length_c                         7.75542
_cell_angle_alpha                      90
_cell_angle_beta                       90
_cell_angle_gamma                      90
_space_group_name_H-M_alt              'P 1'
_space_group_IT_number                 1

loop_
_space_group_symop_operation_xyz
   'x, y, z'

loop_
   _atom_site_label
   _atom_site_occupancy
   _atom_site_fract_x
   _atom_site_fract_y
   _atom_site_fract_z
   _atom_site_adp_type
   _atom_site_B_iso_or_equiv
   _atom_site_type_symbol
   W1         1.0     0.142509      0.153459      0.282478     Biso  1.000000 W
   W2         1.0     0.143273      0.145063      0.774543     Biso  1.000000 W
   W3         1.0     0.153651      0.652480      0.774539     Biso  1.000000 W
   W4         1.0     0.159402      0.643027      0.282524     Biso  1.000000 W
   W5         1.0     0.392409      0.395009      0.716262     Biso  1.000000 W
   W6         1.0     0.396274      0.904990      0.226796     Biso  1.000000 W
   W7         1.0     0.402814      0.389538      0.225320     Biso  1.000000 W
   W8         1.0     0.404120      0.900705      0.717732     Biso  1.000000 W
   W9         1.0     0.639161      0.649877      0.281924     Biso  1.000000 W
   W10        1.0     0.643985      0.641329      0.774334     Biso  1.000000 W
   W11        1.0     0.651586      0.157530      0.774572     Biso  1.000000 W
   W12        1.0     0.659422      0.147697      0.282250     Biso  1.000000 W
   W13        1.0     0.890516      0.893847      0.715835     Biso  1.000000 W
   W14        1.0     0.895930      0.409626      0.226185     Biso  1.000000 W
   W15        1.0     0.900569      0.885875      0.225295     Biso  1.000000 W
   W16        1.0     0.904797      0.403018      0.716945     Biso  1.000000 W
   O1         1.0    -0.001429      0.048824      0.233729     Biso  1.000000 O
   O2         1.0    -0.000363      0.747641      0.769292     Biso  1.000000 O
   O3         1.0     0.000451      0.251378      0.725097     Biso  1.000000 O
   O4         1.0     0.001112      0.548205      0.272393     Biso  1.000000 O
   O5         1.0     0.044964      0.996774      0.778486     Biso  1.000000 O
   O6         1.0     0.045358      0.298337      0.285363     Biso  1.000000 O
   O7         1.0     0.049740      0.789999      0.219773     Biso  1.000000 O
   O8         1.0     0.050555      0.502277      0.714623     Biso  1.000000 O
   O9         1.0     0.146351      0.121727      0.507840     Biso  1.000000 O
   O10        1.0     0.148407      0.176986      0.008461     Biso  1.000000 O
   O11        1.0     0.150573      0.674387      0.507921     Biso  1.000000 O
   O12        1.0     0.153828      0.618413      0.007953     Biso  1.000000 O
   O13        1.0     0.248456      1.001570      0.222947     Biso  1.000000 O
   O14        1.0     0.249973      0.293629      0.713139     Biso  1.000000 O
   O15        1.0     0.254174      0.496484      0.287828     Biso  1.000000 O
   O16        1.0     0.254203      0.795316      0.776573     Biso  1.000000 O
   O17        1.0     0.297661      0.049408      0.765688     Biso  1.000000 O
   O18        1.0     0.298008      0.248288      0.275007     Biso  1.000000 O
   O19        1.0     0.298454      0.546443      0.722017     Biso  1.000000 O
   O20        1.0     0.299570      0.747854      0.235942     Biso  1.000000 O
   O21        1.0     0.369955      0.396564     -0.008196     Biso  1.000000 O
   O22        1.0     0.372328      0.898287      0.491881     Biso  1.000000 O
   O23        1.0     0.425636      0.897222     -0.007723     Biso  1.000000 O
   O24        1.0     0.427688      0.394910      0.491561     Biso  1.000000 O
   O25        1.0     0.497876      0.545402      0.234000     Biso  1.000000 O
   O26        1.0     0.499926      0.251010      0.769548     Biso  1.000000 O
   O27        1.0     0.500254      0.748250      0.724842     Biso  1.000000 O
   O28        1.0     0.501418      0.051526      0.272045     Biso  1.000000 O
   O29        1.0     0.543544      0.497953      0.777256     Biso  1.000000 O
   O30        1.0     0.543817      0.796051      0.286108     Biso  1.000000 O
   O31        1.0     0.549100      1.003230      0.715705     Biso  1.000000 O
   O32        1.0     0.549050      0.294226      0.220026     Biso  1.000000 O
   O33        1.0     0.645659      0.674301      0.008185     Biso  1.000000 O
   O34        1.0     0.646070      0.619409      0.507554     Biso  1.000000 O
   O35        1.0     0.649347      0.178286      0.507766     Biso  1.000000 O
   O36        1.0     0.653430      0.123071      0.007988     Biso  1.000000 O
   O37        1.0     0.747579      0.502559      0.221858     Biso  1.000000 O
   O38        1.0     0.748603      0.791336      0.714148     Biso  1.000000 O
   O39        1.0     0.753066      0.997585      0.287613     Biso  1.000000 O
   O40        1.0     0.753583      0.299527      0.775672     Biso  1.000000 O
   O41        1.0     0.796039      0.745675      0.272923     Biso  1.000000 O
   O42        1.0     0.796655      0.546592      0.766963     Biso  1.000000 O
   O43        1.0     0.797223      0.050744      0.721231     Biso  1.000000 O
   O44        1.0     0.799225      0.252248      0.236386     Biso  1.000000 O
   O45        1.0     0.869161      0.895047     -0.008461     Biso  1.000000 O
   O46        1.0     0.871684      0.402977      0.491473     Biso  1.000000 O
   O47        1.0     0.925409      0.400819     -0.008159     Biso  1.000000 O
   O48        1.0     0.925762      0.891918      0.491135     Biso  1.000000 O
