#======================================================================

# CRYSTAL DATA

#----------------------------------------------------------------------

data_VESTA_phase_1


_chemical_name_common                  ''
_cell_length_a                         10.47430
_cell_length_b                         10.48240
_cell_length_c                         7.75442
_cell_angle_alpha                      90
_cell_angle_beta                       90
_cell_angle_gamma                      90
_space_group_name_H-M_alt              'P 1'
_space_group_IT_number                 1

loop_
_space_group_symop_operation_xyz
   'x, y, z'

loop_
   _atom_site_label
   _atom_site_occupancy
   _atom_site_fract_x
   _atom_site_fract_y
   _atom_site_fract_z
   _atom_site_adp_type
   _atom_site_B_iso_or_equiv
   _atom_site_type_symbol
   W1         1.0     0.142946      0.404208      0.226575     Biso  1.000000 W
   W2         1.0     0.147640      0.885933      0.718050     Biso  1.000000 W
   W3         1.0     0.150895      0.410637      0.718989     Biso  1.000000 W
   W4         1.0     0.158269      0.892756      0.225571     Biso  1.000000 W
   W5         1.0     0.387611      0.148591      0.773932     Biso  1.000000 W
   W6         1.0     0.395058      0.157855      0.283158     Biso  1.000000 W
   W7         1.0     0.404784      0.640872      0.283184     Biso  1.000000 W
   W8         1.0     0.407303      0.649728      0.773966     Biso  1.000000 W
   W9         1.0     0.641416      0.902661      0.226221     Biso  1.000000 W
   W10        1.0     0.643343      0.390611      0.716616     Biso  1.000000 W
   W11        1.0     0.648801      0.905525      0.718242     Biso  1.000000 W
   W12        1.0     0.653808      0.393772      0.224444     Biso  1.000000 W
   W13        1.0     0.885860      0.643698      0.773966     Biso  1.000000 W
   W14        1.0     0.889731      0.652599      0.282648     Biso  1.000000 W
   W15        1.0     0.901869      0.154414      0.774912     Biso  1.000000 W
   W16        1.0     0.903845      0.145576      0.283378     Biso  1.000000 W
   O1         1.0    -0.003217      0.503379      0.225077     Biso  1.000000 O
   O2         1.0    -0.002224      0.791507      0.712042     Biso  1.000000 O
   O3         1.0     0.002498      0.299246      0.777921     Biso  1.000000 O
   O4         1.0     0.002981      0.997524      0.286411     Biso  1.000000 O
   O5         1.0     0.047586      0.549810      0.762077     Biso  1.000000 O
   O6         1.0     0.048721      0.252045      0.233106     Biso  1.000000 O
   O7         1.0     0.049985      0.748981      0.279932     Biso  1.000000 O
   O8         1.0     0.052214      0.048701      0.728617     Biso  1.000000 O
   O9         1.0     0.122672      0.890988     -0.007548     Biso  1.000000 O
   O10        1.0     0.123378      0.400561      0.492567     Biso  1.000000 O
   O11        1.0     0.174863      0.403512     -0.007763     Biso  1.000000 O
   O12        1.0     0.178996      0.895291      0.492618     Biso  1.000000 O
   O13        1.0     0.248475      0.252314      0.729668     Biso  1.000000 O
   O14        1.0     0.250833      0.050736      0.229869     Biso  1.000000 O
   O15        1.0     0.251289      0.745238      0.765297     Biso  1.000000 O
   O16        1.0     0.251323      0.546736      0.275085     Biso  1.000000 O
   O17        1.0     0.294091      0.299809      0.283702     Biso  1.000000 O
   O18        1.0     0.294686      0.997450      0.780196     Biso  1.000000 O
   O19        1.0     0.299417      0.791130      0.223453     Biso  1.000000 O
   O20        1.0     0.299911      0.502098      0.714923     Biso  1.000000 O
   O21        1.0     0.393184      0.123428      0.508150     Biso  1.000000 O
   O22        1.0     0.398823      0.178398      0.008061     Biso  1.000000 O
   O23        1.0     0.401304      0.673590      0.508679     Biso  1.000000 O
   O24        1.0     0.401641      0.619096      0.008078     Biso  1.000000 O
   O25        1.0     0.496833      1.003130      0.224523     Biso  1.000000 O
   O26        1.0     0.498149      0.294265      0.711263     Biso  1.000000 O
   O27        1.0     0.502401      0.795817      0.777626     Biso  1.000000 O
   O28        1.0     0.503285      0.496910      0.286582     Biso  1.000000 O
   O29        1.0     0.545359      0.051436      0.762645     Biso  1.000000 O
   O30        1.0     0.546371      0.748230      0.234098     Biso  1.000000 O
   O31        1.0     0.547197      0.250332      0.278515     Biso  1.000000 O
   O32        1.0     0.548617      0.545533      0.725189     Biso  1.000000 O
   O33        1.0     0.618223      0.394654     -0.008398     Biso  1.000000 O
   O34        1.0     0.620093      0.897295      0.492039     Biso  1.000000 O
   O35        1.0     0.672348      0.899222     -0.008144     Biso  1.000000 O
   O36        1.0     0.676756      0.396376      0.491758     Biso  1.000000 O
   O37        1.0     0.745934      0.748483      0.728257     Biso  1.000000 O
   O38        1.0     0.746549      0.546388      0.230380     Biso  1.000000 O
   O39        1.0     0.747742      0.248642      0.767652     Biso  1.000000 O
   O40        1.0     0.748691      0.050008      0.274020     Biso  1.000000 O
   O41        1.0     0.790765      0.795884      0.284251     Biso  1.000000 O
   O42        1.0     0.791264      0.496824      0.779468     Biso  1.000000 O
   O43        1.0     0.796233      0.293699      0.221048     Biso  1.000000 O
   O44        1.0     0.797028      1.001960      0.714656     Biso  1.000000 O
   O45        1.0     0.890334      0.619330      0.507846     Biso  1.000000 O
   O46        1.0     0.894535      0.674343      0.008067     Biso  1.000000 O
   O47        1.0     0.897141      0.177675      0.508699     Biso  1.000000 O
   O48        1.0     0.899433      0.121563      0.008398     Biso  1.000000 O
