#======================================================================

# CRYSTAL DATA

#----------------------------------------------------------------------

data_VESTA_phase_1


_chemical_name_common                  ''
_cell_length_a                         10.43900
_cell_length_b                         10.48240
_cell_length_c                         7.75442
_cell_angle_alpha                      90
_cell_angle_beta                       90
_cell_angle_gamma                      90
_space_group_name_H-M_alt              'P 1'
_space_group_IT_number                 1

loop_
_space_group_symop_operation_xyz
   'x, y, z'

loop_
   _atom_site_label
   _atom_site_occupancy
   _atom_site_fract_x
   _atom_site_fract_y
   _atom_site_fract_z
   _atom_site_adp_type
   _atom_site_B_iso_or_equiv
   _atom_site_type_symbol
   W1         1.0     0.139607      0.148591      0.773932     Biso  1.000000 W
   W2         1.0     0.147080      0.157855      0.283158     Biso  1.000000 W
   W3         1.0     0.156839      0.640872      0.283184     Biso  1.000000 W
   W4         1.0     0.159366      0.649728      0.773966     Biso  1.000000 W
   W5         1.0     0.394272      0.902661      0.226221     Biso  1.000000 W
   W6         1.0     0.396205      0.390611      0.716616     Biso  1.000000 W
   W7         1.0     0.401681      0.905525      0.718242     Biso  1.000000 W
   W8         1.0     0.406705      0.393772      0.224444     Biso  1.000000 W
   W9         1.0     0.639543      0.643698      0.773966     Biso  1.000000 W
   W10        1.0     0.643427      0.652599      0.282648     Biso  1.000000 W
   W11        1.0     0.655607      0.154414      0.774912     Biso  1.000000 W
   W12        1.0     0.657590      0.145576      0.283378     Biso  1.000000 W
   W13        1.0     0.892502      0.890371      0.716098     Biso  1.000000 W
   W14        1.0     0.894734      0.407278      0.227027     Biso  1.000000 W
   W15        1.0     0.902105      0.406486      0.718337     Biso  1.000000 W
   W16        1.0     0.902998      0.888714      0.224699     Biso  1.000000 W
   O1         1.0    -0.000515      0.252054      0.728483     Biso  1.000000 O
   O2         1.0     0.000072      0.049964      0.231115     Biso  1.000000 O
   O3         1.0     0.000755      0.746206      0.767219     Biso  1.000000 O
   O4         1.0     0.001429      0.547235      0.274234     Biso  1.000000 O
   O5         1.0     0.045771      0.299809      0.283702     Biso  1.000000 O
   O6         1.0     0.046368      0.997450      0.780196     Biso  1.000000 O
   O7         1.0     0.051115      0.791130      0.223453     Biso  1.000000 O
   O8         1.0     0.051611      0.502098      0.714923     Biso  1.000000 O
   O9         1.0     0.145199      0.123428      0.508150     Biso  1.000000 O
   O10        1.0     0.150858      0.178398      0.008061     Biso  1.000000 O
   O11        1.0     0.153347      0.673590      0.508679     Biso  1.000000 O
   O12        1.0     0.153685      0.619096      0.008078     Biso  1.000000 O
   O13        1.0     0.249199      1.003130      0.224523     Biso  1.000000 O
   O14        1.0     0.250520      0.294265      0.711263     Biso  1.000000 O
   O15        1.0     0.254786      0.795817      0.777626     Biso  1.000000 O
   O16        1.0     0.255673      0.496910      0.286582     Biso  1.000000 O
   O17        1.0     0.297889      0.051436      0.762645     Biso  1.000000 O
   O18        1.0     0.298905      0.748230      0.234098     Biso  1.000000 O
   O19        1.0     0.299734      0.250332      0.278515     Biso  1.000000 O
   O20        1.0     0.301158      0.545533      0.725189     Biso  1.000000 O
   O21        1.0     0.371000      0.394654     -0.008398     Biso  1.000000 O
   O22        1.0     0.372876      0.897295      0.492039     Biso  1.000000 O
   O23        1.0     0.425309      0.899222     -0.008144     Biso  1.000000 O
   O24        1.0     0.429732      0.396376      0.491758     Biso  1.000000 O
   O25        1.0     0.499144      0.748483      0.728257     Biso  1.000000 O
   O26        1.0     0.499761      0.546388      0.230380     Biso  1.000000 O
   O27        1.0     0.500958      0.248642      0.767652     Biso  1.000000 O
   O28        1.0     0.501909      0.050008      0.274020     Biso  1.000000 O
   O29        1.0     0.544126      0.795884      0.284251     Biso  1.000000 O
   O30        1.0     0.544627      0.496824      0.779468     Biso  1.000000 O
   O31        1.0     0.549613      0.293699      0.221048     Biso  1.000000 O
   O32        1.0     0.550410      1.001960      0.714656     Biso  1.000000 O
   O33        1.0     0.644032      0.619330      0.507846     Biso  1.000000 O
   O34        1.0     0.648247      0.674343      0.008067     Biso  1.000000 O
   O35        1.0     0.650863      0.177675      0.508699     Biso  1.000000 O
   O36        1.0     0.653162      0.121563      0.008398     Biso  1.000000 O
   O37        1.0     0.747614      0.502207      0.224076     Biso  1.000000 O
   O38        1.0     0.748940      0.790789      0.712066     Biso  1.000000 O
   O39        1.0     0.753696      0.996866      0.287923     Biso  1.000000 O
   O40        1.0     0.753674      0.298678      0.777800     Biso  1.000000 O
   O41        1.0     0.796073      0.547109      0.763916     Biso  1.000000 O
   O42        1.0     0.797292      0.746224      0.276791     Biso  1.000000 O
   O43        1.0     0.798464      0.251207      0.235359     Biso  1.000000 O
   O44        1.0     0.798984      0.049482      0.723116     Biso  1.000000 O
   O45        1.0     0.868451      0.892920     -0.008294     Biso  1.000000 O
   O46        1.0     0.871771      0.400696      0.492289     Biso  1.000000 O
   O47        1.0     0.924714      0.401626     -0.007505     Biso  1.000000 O
   O48        1.0     0.927431      0.892644      0.491539     Biso  1.000000 O
