#======================================================================

# CRYSTAL DATA

#----------------------------------------------------------------------

data_VESTA_phase_1


_chemical_name_common                  ''
_cell_length_a                         10.47050
_cell_length_b                         10.48240
_cell_length_c                         7.75816
_cell_angle_alpha                      90
_cell_angle_beta                       90
_cell_angle_gamma                      90
_space_group_name_H-M_alt              'P 1'
_space_group_IT_number                 1

loop_
_space_group_symop_operation_xyz
   'x, y, z'

loop_
   _atom_site_label
   _atom_site_occupancy
   _atom_site_fract_x
   _atom_site_fract_y
   _atom_site_fract_z
   _atom_site_adp_type
   _atom_site_B_iso_or_equiv
   _atom_site_type_symbol
   W1         1.0     0.145009      0.902661      0.226113     Biso  1.000000 W
   W2         1.0     0.146936      0.390611      0.716271     Biso  1.000000 W
   W3         1.0     0.152396      0.905525      0.717896     Biso  1.000000 W
   W4         1.0     0.157404      0.393772      0.224336     Biso  1.000000 W
   W5         1.0     0.389541      0.643698      0.773594     Biso  1.000000 W
   W6         1.0     0.393413      0.652599      0.282512     Biso  1.000000 W
   W7         1.0     0.405556      0.154414      0.774539     Biso  1.000000 W
   W8         1.0     0.407533      0.145576      0.283242     Biso  1.000000 W
   W9         1.0     0.641738      0.890371      0.715753     Biso  1.000000 W
   W10        1.0     0.643964      0.407278      0.226918     Biso  1.000000 W
   W11        1.0     0.651312      0.406486      0.717991     Biso  1.000000 W
   W12        1.0     0.652203      0.888714      0.224591     Biso  1.000000 W
   W13        1.0     0.888700      0.154265      0.282731     Biso  1.000000 W
   W14        1.0     0.889462      0.145868      0.774622     Biso  1.000000 W
   W15        1.0     0.899804      0.653378      0.774619     Biso  1.000000 W
   W16        1.0     0.905534      0.643923      0.282777     Biso  1.000000 W
   O1         1.0    -0.002677      1.002790      0.223818     Biso  1.000000 O
   O2         1.0    -0.001263      0.294363      0.712081     Biso  1.000000 O
   O3         1.0     0.002971      0.796029      0.776951     Biso  1.000000 O
   O4         1.0     0.003399      0.497132      0.287262     Biso  1.000000 O
   O5         1.0     0.048916      0.051436      0.762278     Biso  1.000000 O
   O6         1.0     0.049929      0.748230      0.233985     Biso  1.000000 O
   O7         1.0     0.050755      0.250332      0.278381     Biso  1.000000 O
   O8         1.0     0.052175      0.545533      0.724840     Biso  1.000000 O
   O9         1.0     0.121806      0.394654     -0.008634     Biso  1.000000 O
   O10        1.0     0.123677      0.897295      0.491802     Biso  1.000000 O
   O11        1.0     0.175952      0.899222     -0.008381     Biso  1.000000 O
   O12        1.0     0.180361      0.396376      0.491522     Biso  1.000000 O
   O13        1.0     0.249565      0.748483      0.727906     Biso  1.000000 O
   O14        1.0     0.250180      0.546388      0.230269     Biso  1.000000 O
   O15        1.0     0.251373      0.248642      0.767282     Biso  1.000000 O
   O16        1.0     0.252322      0.050008      0.273888     Biso  1.000000 O
   O17        1.0     0.294412      0.795884      0.284114     Biso  1.000000 O
   O18        1.0     0.294911      0.496824      0.779093     Biso  1.000000 O
   O19        1.0     0.299882      0.293699      0.220941     Biso  1.000000 O
   O20        1.0     0.300677      1.001960      0.714312     Biso  1.000000 O
   O21        1.0     0.394017      0.619330      0.507602     Biso  1.000000 O
   O22        1.0     0.398219      0.674343      0.007822     Biso  1.000000 O
   O23        1.0     0.400827      0.177675      0.508454     Biso  1.000000 O
   O24        1.0     0.403119      0.121563      0.008153     Biso  1.000000 O
   O25        1.0     0.497287      0.502207      0.223968     Biso  1.000000 O
   O26        1.0     0.498609      0.790789      0.711724     Biso  1.000000 O
   O27        1.0     0.503350      0.996866      0.287784     Biso  1.000000 O
   O28        1.0     0.503329      0.298678      0.777425     Biso  1.000000 O
   O29        1.0     0.545599      0.547109      0.763548     Biso  1.000000 O
   O30        1.0     0.546815      0.746224      0.276658     Biso  1.000000 O
   O31        1.0     0.547983      0.251207      0.235246     Biso  1.000000 O
   O32        1.0     0.548501      0.049482      0.722768     Biso  1.000000 O
   O33        1.0     0.617760      0.892920     -0.008531     Biso  1.000000 O
   O34        1.0     0.621070      0.400696      0.492052     Biso  1.000000 O
   O35        1.0     0.673853      0.401626     -0.007742     Biso  1.000000 O
   O36        1.0     0.676562      0.892644      0.491302     Biso  1.000000 O
   O37        1.0     0.746697      0.049192      0.232249     Biso  1.000000 O
   O38        1.0     0.747603      0.747174      0.768770     Biso  1.000000 O
   O39        1.0     0.747885      0.251795      0.726949     Biso  1.000000 O
   O40        1.0     0.748912      0.547735      0.273250     Biso  1.000000 O
   O41        1.0     0.791502      0.997643      0.778564     Biso  1.000000 O
   O42        1.0     0.791894      0.299170      0.285615     Biso  1.000000 O
   O43        1.0     0.796260      0.790922      0.220048     Biso  1.000000 O
   O44        1.0     0.797073      0.503148      0.714724     Biso  1.000000 O
   O45        1.0     0.892529      0.122527      0.508013     Biso  1.000000 O
   O46        1.0     0.894578      0.177796      0.008634     Biso  1.000000 O
   O47        1.0     0.896736      0.675290      0.508094     Biso  1.000000 O
   O48        1.0     0.899980      0.619305      0.008127     Biso  1.000000 O
