#======================================================================

# CRYSTAL DATA

#----------------------------------------------------------------------

data_VESTA_phase_1


_chemical_name_common                  ''
_cell_length_a                         10.47590
_cell_length_b                         10.48010
_cell_length_c                         7.75346
_cell_angle_alpha                      90
_cell_angle_beta                       90
_cell_angle_gamma                      90
_space_group_name_H-M_alt              'P 1'
_space_group_IT_number                 1

loop_
_space_group_symop_operation_xyz
   'x, y, z'

loop_
   _atom_site_label
   _atom_site_occupancy
   _atom_site_fract_x
   _atom_site_fract_y
   _atom_site_fract_z
   _atom_site_adp_type
   _atom_site_B_iso_or_equiv
   _atom_site_type_symbol
   W1         1.0     0.143743      0.394360      0.716443     Biso  1.000000 W
   W2         1.0     0.147592      0.904549      0.226853     Biso  1.000000 W
   W3         1.0     0.154105      0.388886      0.225377     Biso  1.000000 W
   W4         1.0     0.155406      0.900263      0.717914     Biso  1.000000 W
   W5         1.0     0.389495      0.649332      0.281995     Biso  1.000000 W
   W6         1.0     0.394299      0.640781      0.774530     Biso  1.000000 W
   W7         1.0     0.401870      0.156783      0.774768     Biso  1.000000 W
   W8         1.0     0.409674      0.146946      0.282322     Biso  1.000000 W
   W9         1.0     0.639832      0.893402      0.716016     Biso  1.000000 W
   W10        1.0     0.645224      0.408983      0.226242     Biso  1.000000 W
   W11        1.0     0.649844      0.885426      0.225353     Biso  1.000000 W
   W12        1.0     0.654056      0.402372      0.717127     Biso  1.000000 W
   W13        1.0     0.885942      0.152772      0.281980     Biso  1.000000 W
   W14        1.0     0.893174      0.143801      0.774616     Biso  1.000000 W
   W15        1.0     0.897760      0.655297      0.775183     Biso  1.000000 W
   W16        1.0     0.906275      0.645224      0.282576     Biso  1.000000 W
   O1         1.0    -0.002466      1.002000      0.222047     Biso  1.000000 O
   O2         1.0    -0.001431      0.294027      0.714483     Biso  1.000000 O
   O3         1.0     0.002892      0.497020      0.287910     Biso  1.000000 O
   O4         1.0     0.003048      0.795920      0.776357     Biso  1.000000 O
   O5         1.0     0.049378      0.048617      0.765883     Biso  1.000000 O
   O6         1.0     0.049723      0.247579      0.275076     Biso  1.000000 O
   O7         1.0     0.050167      0.545855      0.722200     Biso  1.000000 O
   O8         1.0     0.051279      0.747349      0.236002     Biso  1.000000 O
   O9         1.0     0.121379      0.395915     -0.008072     Biso  1.000000 O
   O10        1.0     0.123743      0.897843      0.492006     Biso  1.000000 O
   O11        1.0     0.176835      0.896778     -0.007598     Biso  1.000000 O
   O12        1.0     0.178879      0.394261      0.491685     Biso  1.000000 O
   O13        1.0     0.248783      0.544814      0.234059     Biso  1.000000 O
   O14        1.0     0.250824      0.250301      0.769743     Biso  1.000000 O
   O15        1.0     0.251151      0.747745      0.725026     Biso  1.000000 O
   O16        1.0     0.252310      0.050736      0.272114     Biso  1.000000 O
   O17        1.0     0.294265      0.497345      0.777453     Biso  1.000000 O
   O18        1.0     0.294537      0.795566      0.286181     Biso  1.000000 O
   O19        1.0     0.299799      1.002620      0.715887     Biso  1.000000 O
   O20        1.0     0.299749      0.293535      0.220082     Biso  1.000000 O
   O21        1.0     0.395967      0.673766      0.008314     Biso  1.000000 O
   O22        1.0     0.396376      0.618852      0.507683     Biso  1.000000 O
   O23        1.0     0.399640      0.177547      0.507895     Biso  1.000000 O
   O24        1.0     0.403706      0.122310      0.008117     Biso  1.000000 O
   O25        1.0     0.497474      0.501954      0.221914     Biso  1.000000 O
   O26        1.0     0.498494      0.790849      0.714329     Biso  1.000000 O
   O27        1.0     0.502939      0.996977      0.287686     Biso  1.000000 O
   O28        1.0     0.503454      0.298838      0.775868     Biso  1.000000 O
   O29        1.0     0.545738      0.745169      0.272992     Biso  1.000000 O
   O30        1.0     0.546352      0.546005      0.767157     Biso  1.000000 O
   O31        1.0     0.546917      0.049953      0.721414     Biso  1.000000 O
   O32        1.0     0.548911      0.251540      0.236446     Biso  1.000000 O
   O33        1.0     0.618564      0.894602     -0.008336     Biso  1.000000 O
   O34        1.0     0.621077      0.402331      0.491597     Biso  1.000000 O
   O35        1.0     0.674584      0.400172     -0.008034     Biso  1.000000 O
   O36        1.0     0.674935      0.891472      0.491260     Biso  1.000000 O
   O37        1.0     0.746027      0.048452      0.235540     Biso  1.000000 O
   O38        1.0     0.747244      0.748519      0.770092     Biso  1.000000 O
   O39        1.0     0.748583      0.251077      0.723524     Biso  1.000000 O
   O40        1.0     0.748873      0.548968      0.271860     Biso  1.000000 O
   O41        1.0     0.791362      0.998244      0.776093     Biso  1.000000 O
   O42        1.0     0.791871      0.299636      0.286281     Biso  1.000000 O
   O43        1.0     0.796558      0.791581      0.219913     Biso  1.000000 O
   O44        1.0     0.796752      0.503532      0.715850     Biso  1.000000 O
   O45        1.0     0.892416      0.177323      0.008203     Biso  1.000000 O
   O46        1.0     0.894761      0.123077      0.507762     Biso  1.000000 O
   O47        1.0     0.896121      0.675763      0.508067     Biso  1.000000 O
   O48        1.0     0.900240      0.620374      0.008336     Biso  1.000000 O
