#======================================================================

# CRYSTAL DATA

#----------------------------------------------------------------------

data_VESTA_phase_1


_chemical_name_common                  ''
_cell_length_a                         10.44820
_cell_length_b                         10.48010
_cell_length_c                         7.75450
_cell_angle_alpha                      90
_cell_angle_beta                       90
_cell_angle_gamma                      90
_space_group_name_H-M_alt              'P 1'
_space_group_IT_number                 1

loop_
_space_group_symop_operation_xyz
   'x, y, z'

loop_
   _atom_site_label
   _atom_site_occupancy
   _atom_site_fract_x
   _atom_site_fract_y
   _atom_site_fract_z
   _atom_site_adp_type
   _atom_site_B_iso_or_equiv
   _atom_site_type_symbol
   W1         1.0     0.141085      0.649332      0.282092     Biso  1.000000 W
   W2         1.0     0.145902      0.640781      0.774561     Biso  1.000000 W
   W3         1.0     0.153492      0.156783      0.774798     Biso  1.000000 W
   W4         1.0     0.161317      0.146946      0.282419     Biso  1.000000 W
   W5         1.0     0.392085      0.893402      0.716055     Biso  1.000000 W
   W6         1.0     0.397491      0.408983      0.226347     Biso  1.000000 W
   W7         1.0     0.402123      0.885426      0.225457     Biso  1.000000 W
   W8         1.0     0.406346      0.402372      0.717165     Biso  1.000000 W
   W9         1.0     0.638846      0.152772      0.282077     Biso  1.000000 W
   W10        1.0     0.646097      0.143801      0.774647     Biso  1.000000 W
   W11        1.0     0.650695      0.655297      0.775213     Biso  1.000000 W
   W12        1.0     0.659232      0.645224      0.282672     Biso  1.000000 W
   W13        1.0     0.890189      0.397849      0.716556     Biso  1.000000 W
   W14        1.0     0.895351      0.906760      0.225703     Biso  1.000000 W
   W15        1.0     0.900258      0.389165      0.225961     Biso  1.000000 W
   W16        1.0     0.904982      0.898993      0.716435     Biso  1.000000 W
   O1         1.0    -0.001761      0.545643      0.235529     Biso  1.000000 O
   O2         1.0     0.000128      0.251408      0.769680     Biso  1.000000 O
   O3         1.0     0.000681      0.748053      0.723610     Biso  1.000000 O
   O4         1.0     0.001768      0.051835      0.271952     Biso  1.000000 O
   O5         1.0     0.045603      0.497345      0.777483     Biso  1.000000 O
   O6         1.0     0.045876      0.795566      0.286277     Biso  1.000000 O
   O7         1.0     0.051151      1.002620      0.715925     Biso  1.000000 O
   O8         1.0     0.051101      0.293535      0.220187     Biso  1.000000 O
   O9         1.0     0.147574      0.673766      0.008381     Biso  1.000000 O
   O10        1.0     0.147984      0.618852      0.507750     Biso  1.000000 O
   O11        1.0     0.151257      0.177547      0.507961     Biso  1.000000 O
   O12        1.0     0.155333      0.122310      0.008183     Biso  1.000000 O
   O13        1.0     0.249349      0.501954      0.222019     Biso  1.000000 O
   O14        1.0     0.250372      0.790849      0.714368     Biso  1.000000 O
   O15        1.0     0.254829      0.996977      0.287782     Biso  1.000000 O
   O16        1.0     0.255346      0.298838      0.775899     Biso  1.000000 O
   O17        1.0     0.297741      0.745169      0.273090     Biso  1.000000 O
   O18        1.0     0.298356      0.546005      0.767189     Biso  1.000000 O
   O19        1.0     0.298923      0.049953      0.721452     Biso  1.000000 O
   O20        1.0     0.300923      0.251540      0.236549     Biso  1.000000 O
   O21        1.0     0.370760      0.894602     -0.008268     Biso  1.000000 O
   O22        1.0     0.373280      0.402331      0.491666     Biso  1.000000 O
   O23        1.0     0.426928      0.400172     -0.007966     Biso  1.000000 O
   O24        1.0     0.427281      0.891472      0.491329     Biso  1.000000 O
   O25        1.0     0.498560      0.048452      0.235643     Biso  1.000000 O
   O26        1.0     0.499781      0.748519      0.770123     Biso  1.000000 O
   O27        1.0     0.501123      0.251077      0.723562     Biso  1.000000 O
   O28        1.0     0.501414      0.548968      0.271958     Biso  1.000000 O
   O29        1.0     0.544015      0.998244      0.776123     Biso  1.000000 O
   O30        1.0     0.544526      0.299636      0.286377     Biso  1.000000 O
   O31        1.0     0.549226      0.791581      0.220018     Biso  1.000000 O
   O32        1.0     0.549419      0.503532      0.715888     Biso  1.000000 O
   O33        1.0     0.645337      0.177323      0.008270     Biso  1.000000 O
   O34        1.0     0.647688      0.123077      0.507829     Biso  1.000000 O
   O35        1.0     0.649052      0.675763      0.508134     Biso  1.000000 O
   O36        1.0     0.653182      0.620374      0.008403     Biso  1.000000 O
   O37        1.0     0.747888      1.003020      0.221195     Biso  1.000000 O
   O38        1.0     0.748449      0.295116      0.715683     Biso  1.000000 O
   O39        1.0     0.752921      0.498164      0.288015     Biso  1.000000 O
   O40        1.0     0.753206      0.797009      0.775974     Biso  1.000000 O
   O41        1.0     0.796121      0.249138      0.271771     Biso  1.000000 O
   O42        1.0     0.796548      0.548165      0.721569     Biso  1.000000 O
   O43        1.0     0.797472      0.049759      0.768087     Biso  1.000000 O
   O44        1.0     0.799098      0.749366      0.236371     Biso  1.000000 O
   O45        1.0     0.869961      0.399270     -0.008101     Biso  1.000000 O
   O46        1.0     0.870833      0.900350      0.491309     Biso  1.000000 O
   O47        1.0     0.924843      0.395259      0.491600     Biso  1.000000 O
   O48        1.0     0.925294      0.897498     -0.008403     Biso  1.000000 O
