#======================================================================

# CRYSTAL DATA

#----------------------------------------------------------------------

data_VESTA_phase_1


_chemical_name_common                  ''
_cell_length_a                         10.47340
_cell_length_b                         10.49370
_cell_length_c                         7.75450
_cell_angle_alpha                      90
_cell_angle_beta                       90
_cell_angle_gamma                      90
_space_group_name_H-M_alt              'P 1'
_space_group_IT_number                 1

loop_
_space_group_symop_operation_xyz
   'x, y, z'

loop_
   _atom_site_label
   _atom_site_occupancy
   _atom_site_fract_x
   _atom_site_fract_y
   _atom_site_fract_z
   _atom_site_adp_type
   _atom_site_B_iso_or_equiv
   _atom_site_type_symbol
   W1         1.0     0.142392      0.892245      0.716055     Biso  1.000000 W
   W2         1.0     0.147785      0.408453      0.226347     Biso  1.000000 W
   W3         1.0     0.152406      0.884280      0.225457     Biso  1.000000 W
   W4         1.0     0.156619      0.401851      0.717165     Biso  1.000000 W
   W5         1.0     0.388559      0.152574      0.282077     Biso  1.000000 W
   W6         1.0     0.395793      0.143615      0.774647     Biso  1.000000 W
   W7         1.0     0.400380      0.654449      0.775213     Biso  1.000000 W
   W8         1.0     0.408897      0.644388      0.282672     Biso  1.000000 W
   W9         1.0     0.639298      0.397334      0.716556     Biso  1.000000 W
   W10        1.0     0.644447      0.905586      0.225703     Biso  1.000000 W
   W11        1.0     0.649342      0.388662      0.225961     Biso  1.000000 W
   W12        1.0     0.654055      0.897829      0.716435     Biso  1.000000 W
   W13        1.0     0.885134      0.649890      0.281874     Biso  1.000000 W
   W14        1.0     0.893270      0.640218      0.774457     Biso  1.000000 W
   W15        1.0     0.897624      0.159161      0.774914     Biso  1.000000 W
   W16        1.0     0.905930      0.148805      0.282449     Biso  1.000000 W
   O1         1.0    -0.002631      0.502423      0.221212     Biso  1.000000 O
   O2         1.0    -0.002316      0.790892      0.715420     Biso  1.000000 O
   O3         1.0     0.002535      0.997528      0.287512     Biso  1.000000 O
   O4         1.0     0.002991      0.299545      0.775798     Biso  1.000000 O
   O5         1.0     0.048275      0.744204      0.273090     Biso  1.000000 O
   O6         1.0     0.048889      0.545298      0.767189     Biso  1.000000 O
   O7         1.0     0.049455      0.049888      0.721452     Biso  1.000000 O
   O8         1.0     0.051449      0.251214      0.236549     Biso  1.000000 O
   O9         1.0     0.121118      0.893444     -0.008268     Biso  1.000000 O
   O10        1.0     0.123632      0.401810      0.491666     Biso  1.000000 O
   O11        1.0     0.177152      0.399654     -0.007966     Biso  1.000000 O
   O12        1.0     0.177503      0.890318      0.491329     Biso  1.000000 O
   O13        1.0     0.248611      0.048389      0.235643     Biso  1.000000 O
   O14        1.0     0.249829      0.747549      0.770123     Biso  1.000000 O
   O15        1.0     0.251168      0.250752      0.723562     Biso  1.000000 O
   O16        1.0     0.251458      0.548258      0.271958     Biso  1.000000 O
   O17        1.0     0.293957      0.997599      0.776123     Biso  1.000000 O
   O18        1.0     0.294467      0.299248      0.286377     Biso  1.000000 O
   O19        1.0     0.299155      0.790556      0.220018     Biso  1.000000 O
   O20        1.0     0.299348      0.502880      0.715888     Biso  1.000000 O
   O21        1.0     0.395035      0.177093      0.008270     Biso  1.000000 O
   O22        1.0     0.397380      0.122917      0.507829     Biso  1.000000 O
   O23        1.0     0.398741      0.674888      0.508134     Biso  1.000000 O
   O24        1.0     0.402861      0.619571      0.008403     Biso  1.000000 O
   O25        1.0     0.497340      1.002370      0.221195     Biso  1.000000 O
   O26        1.0     0.497899      0.294734      0.715683     Biso  1.000000 O
   O27        1.0     0.502360      0.497519      0.288015     Biso  1.000000 O
   O28        1.0     0.502644      0.795977      0.775974     Biso  1.000000 O
   O29        1.0     0.545456      0.248816      0.271771     Biso  1.000000 O
   O30        1.0     0.545882      0.547455      0.721569     Biso  1.000000 O
   O31        1.0     0.546805      0.049695      0.768087     Biso  1.000000 O
   O32        1.0     0.548426      0.748395      0.236371     Biso  1.000000 O
   O33        1.0     0.619118      0.398753     -0.008101     Biso  1.000000 O
   O34        1.0     0.619988      0.899185      0.491309     Biso  1.000000 O
   O35        1.0     0.673869      0.394748      0.491600     Biso  1.000000 O
   O36        1.0     0.674319      0.896336     -0.008403     Biso  1.000000 O
   O37        1.0     0.745332      0.545764      0.236896     Biso  1.000000 O
   O38        1.0     0.747059      0.252188      0.769587     Biso  1.000000 O
   O39        1.0     0.747835      0.747392      0.722156     Biso  1.000000 O
   O40        1.0     0.748845      0.052866      0.271691     Biso  1.000000 O
   O41        1.0     0.791134      0.498413      0.775158     Biso  1.000000 O
   O42        1.0     0.791333      0.796752      0.286636     Biso  1.000000 O
   O43        1.0     0.796262      1.003670      0.715476     Biso  1.000000 O
   O44        1.0     0.796582      0.295458      0.220766     Biso  1.000000 O
   O45        1.0     0.890978      0.674112      0.007963     Biso  1.000000 O
   O46        1.0     0.895111      0.620343      0.507682     Biso  1.000000 O
   O47        1.0     0.896314      0.179192      0.507998     Biso  1.000000 O
   O48        1.0     0.899828      0.124567      0.008231     Biso  1.000000 O
