#======================================================================

# CRYSTAL DATA

#----------------------------------------------------------------------

data_VESTA_phase_1


_chemical_name_common                  ''
_cell_length_a                         10.44210
_cell_length_b                         10.48040
_cell_length_c                         7.75657
_cell_angle_alpha                      90
_cell_angle_beta                       90
_cell_angle_gamma                      90
_space_group_name_H-M_alt              'P 1'
_space_group_IT_number                 1

loop_
_space_group_symop_operation_xyz
   'x, y, z'

loop_
   _atom_site_label
   _atom_site_occupancy
   _atom_site_fract_x
   _atom_site_fract_y
   _atom_site_fract_z
   _atom_site_adp_type
   _atom_site_B_iso_or_equiv
   _atom_site_type_symbol
   W1         1.0     0.140368      0.151500      0.282268     Biso  1.000000 W
   W2         1.0     0.147623      0.142530      0.774707     Biso  1.000000 W
   W3         1.0     0.152224      0.654011      0.775273     Biso  1.000000 W
   W4         1.0     0.160766      0.643938      0.282863     Biso  1.000000 W
   W5         1.0     0.391858      0.396571      0.716631     Biso  1.000000 W
   W6         1.0     0.397022      0.905466      0.225909     Biso  1.000000 W
   W7         1.0     0.401932      0.387887      0.226167     Biso  1.000000 W
   W8         1.0     0.406659      0.897700      0.716510     Biso  1.000000 W
   W9         1.0     0.638431      0.649446      0.282065     Biso  1.000000 W
   W10        1.0     0.646591      0.639763      0.774517     Biso  1.000000 W
   W11        1.0     0.650958      0.158096      0.774974     Biso  1.000000 W
   W12        1.0     0.659289      0.147726      0.282640     Biso  1.000000 W
   W13        1.0     0.890116      0.894113      0.717033     Biso  1.000000 W
   W14        1.0     0.895655      0.408873      0.225471     Biso  1.000000 W
   W15        1.0     0.900578      0.885927      0.226437     Biso  1.000000 W
   W16        1.0     0.905884      0.401088      0.716133     Biso  1.000000 W
   O1         1.0    -0.001140      0.048225      0.236645     Biso  1.000000 O
   O2         1.0    -0.000189      0.748037      0.769294     Biso  1.000000 O
   O3         1.0     0.001025      0.250122      0.722382     Biso  1.000000 O
   O4         1.0     0.001428      0.548536      0.271874     Biso  1.000000 O
   O5         1.0     0.045482      0.996963      0.776183     Biso  1.000000 O
   O6         1.0     0.045993      0.298360      0.286567     Biso  1.000000 O
   O7         1.0     0.050695      0.790291      0.220226     Biso  1.000000 O
   O8         1.0     0.050889      0.502250      0.715964     Biso  1.000000 O
   O9         1.0     0.146863      0.176050      0.008401     Biso  1.000000 O
   O10        1.0     0.149215      0.121806      0.507960     Biso  1.000000 O
   O11        1.0     0.150580      0.674476      0.508265     Biso  1.000000 O
   O12        1.0     0.154712      0.619089      0.008534     Biso  1.000000 O
   O13        1.0     0.249474      1.001740      0.221403     Biso  1.000000 O
   O14        1.0     0.250035      0.293840      0.715759     Biso  1.000000 O
   O15        1.0     0.254510      0.496882      0.288205     Biso  1.000000 O
   O16        1.0     0.254794      0.795719      0.776034     Biso  1.000000 O
   O17        1.0     0.297735      0.247864      0.271965     Biso  1.000000 O
   O18        1.0     0.298162      0.546882      0.721643     Biso  1.000000 O
   O19        1.0     0.299087      0.048490      0.768149     Biso  1.000000 O
   O20        1.0     0.300713      0.748076      0.236574     Biso  1.000000 O
   O21        1.0     0.371618      0.397991     -0.007965     Biso  1.000000 O
   O22        1.0     0.372490      0.899057      0.491445     Biso  1.000000 O
   O23        1.0     0.426532      0.393981      0.491736     Biso  1.000000 O
   O24        1.0     0.426984      0.896204     -0.008267     Biso  1.000000 O
   O25        1.0     0.498209      0.545188      0.237099     Biso  1.000000 O
   O26        1.0     0.499941      0.251240      0.769648     Biso  1.000000 O
   O27        1.0     0.500720      0.747072      0.722230     Biso  1.000000 O
   O28        1.0     0.501733      0.051666      0.271885     Biso  1.000000 O
   O29        1.0     0.544149      0.497778      0.775218     Biso  1.000000 O
   O30        1.0     0.544348      0.796494      0.286826     Biso  1.000000 O
   O31        1.0     0.549293      1.003040      0.715552     Biso  1.000000 O
   O32        1.0     0.549614      0.294565      0.220973     Biso  1.000000 O
   O33        1.0     0.644292      0.673699      0.008094     Biso  1.000000 O
   O34        1.0     0.648437      0.619862      0.507814     Biso  1.000000 O
   O35        1.0     0.649644      0.178152      0.508129     Biso  1.000000 O
   O36        1.0     0.653168      0.123458      0.008362     Biso  1.000000 O
   O37        1.0     0.747971      0.791695      0.716547     Biso  1.000000 O
   O38        1.0     0.748363      0.502913      0.220612     Biso  1.000000 O
   O39        1.0     0.753243      0.998086      0.287432     Biso  1.000000 O
   O40        1.0     0.753641      0.299752      0.775757     Biso  1.000000 O
   O41        1.0     0.796020      0.745982      0.271028     Biso  1.000000 O
   O42        1.0     0.796969      0.050594      0.722380     Biso  1.000000 O
   O43        1.0     0.797620      0.546155      0.768938     Biso  1.000000 O
   O44        1.0     0.799563      0.252104      0.236284     Biso  1.000000 O
   O45        1.0     0.870724      0.895891     -0.007939     Biso  1.000000 O
   O46        1.0     0.871144      0.403173      0.491265     Biso  1.000000 O
   O47        1.0     0.924111      0.891900      0.491834     Biso  1.000000 O
   O48        1.0     0.926334      0.399534     -0.008534     Biso  1.000000 O
