#======================================================================

# CRYSTAL DATA

#----------------------------------------------------------------------

data_VESTA_phase_1


_chemical_name_common                  ''
_cell_length_a                         10.47450
_cell_length_b                         10.48100
_cell_length_c                         7.75524
_cell_angle_alpha                      90
_cell_angle_beta                       90
_cell_angle_gamma                      90
_space_group_name_H-M_alt              'P 1'
_space_group_IT_number                 1

loop_
_space_group_symop_operation_xyz
   'x, y, z'

loop_
   _atom_site_label
   _atom_site_occupancy
   _atom_site_fract_x
   _atom_site_fract_y
   _atom_site_fract_z
   _atom_site_adp_type
   _atom_site_B_iso_or_equiv
   _atom_site_type_symbol
   W1         1.0     0.142316      0.395424      0.716754     Biso  1.000000 W
   W2         1.0     0.147464      0.904290      0.225948     Biso  1.000000 W
   W3         1.0     0.152359      0.386741      0.226206     Biso  1.000000 W
   W4         1.0     0.157072      0.896524      0.716633     Biso  1.000000 W
   W5         1.0     0.388126      0.648285      0.282113     Biso  1.000000 W
   W6         1.0     0.396261      0.638602      0.774650     Biso  1.000000 W
   W7         1.0     0.400614      0.156963      0.775107     Biso  1.000000 W
   W8         1.0     0.408919      0.146594      0.282689     Biso  1.000000 W
   W9         1.0     0.639033      0.892938      0.717156     Biso  1.000000 W
   W10        1.0     0.644554      0.407725      0.225510     Biso  1.000000 W
   W11        1.0     0.649462      0.884752      0.226476     Biso  1.000000 W
   W12        1.0     0.654751      0.399941      0.716256     Biso  1.000000 W
   W13        1.0     0.886155      0.152958      0.281929     Biso  1.000000 W
   W14        1.0     0.893594      0.142378      0.774147     Biso  1.000000 W
   W15        1.0     0.898004      0.654354      0.774366     Biso  1.000000 W
   W16        1.0     0.905010      0.643829      0.282116     Biso  1.000000 W
   O1         1.0    -0.002367      1.001830      0.220385     Biso  1.000000 O
   O2         1.0    -0.002281      0.293470      0.715827     Biso  1.000000 O
   O3         1.0     0.002696      0.496856      0.287292     Biso  1.000000 O
   O4         1.0     0.002663      0.795527      0.775842     Biso  1.000000 O
   O5         1.0     0.048484      0.246726      0.272012     Biso  1.000000 O
   O6         1.0     0.048909      0.545726      0.721767     Biso  1.000000 O
   O7         1.0     0.049832      0.047364      0.768281     Biso  1.000000 O
   O8         1.0     0.051453      0.746910      0.236615     Biso  1.000000 O
   O9         1.0     0.122138      0.396844     -0.007881     Biso  1.000000 O
   O10        1.0     0.123008      0.897881      0.491529     Biso  1.000000 O
   O11        1.0     0.176883      0.392834      0.491820     Biso  1.000000 O
   O12        1.0     0.177333      0.895029     -0.008183     Biso  1.000000 O
   O13        1.0     0.248338      0.544033      0.237140     Biso  1.000000 O
   O14        1.0     0.250065      0.250102      0.769780     Biso  1.000000 O
   O15        1.0     0.250841      0.745905      0.722354     Biso  1.000000 O
   O16        1.0     0.251851      0.050539      0.271932     Biso  1.000000 O
   O17        1.0     0.294135      0.496625      0.775351     Biso  1.000000 O
   O18        1.0     0.294335      0.795325      0.286875     Biso  1.000000 O
   O19        1.0     0.299263      1.001880      0.715674     Biso  1.000000 O
   O20        1.0     0.299583      0.293425      0.221011     Biso  1.000000 O
   O21        1.0     0.393969      0.672536      0.008182     Biso  1.000000 O
   O22        1.0     0.398101      0.618702      0.507901     Biso  1.000000 O
   O23        1.0     0.399304      0.177018      0.508216     Biso  1.000000 O
   O24        1.0     0.402818      0.122327      0.008449     Biso  1.000000 O
   O25        1.0     0.497327      0.790526      0.716670     Biso  1.000000 O
   O26        1.0     0.497718      0.501761      0.220650     Biso  1.000000 O
   O27        1.0     0.502583      0.996934      0.287481     Biso  1.000000 O
   O28        1.0     0.502980      0.298611      0.775890     Biso  1.000000 O
   O29        1.0     0.545228      0.744815      0.271075     Biso  1.000000 O
   O30        1.0     0.546174      0.049467      0.722504     Biso  1.000000 O
   O31        1.0     0.546823      0.545000      0.769069     Biso  1.000000 O
   O32        1.0     0.548760      0.250965      0.236325     Biso  1.000000 O
   O33        1.0     0.619700      0.894716     -0.007854     Biso  1.000000 O
   O34        1.0     0.620119      0.402027      0.491349     Biso  1.000000 O
   O35        1.0     0.672922      0.890725      0.491918     Biso  1.000000 O
   O36        1.0     0.675139      0.398388     -0.008449     Biso  1.000000 O
   O37        1.0     0.746303      0.048140      0.237484     Biso  1.000000 O
   O38        1.0     0.746982      0.747678      0.768537     Biso  1.000000 O
   O39        1.0     0.748064      0.249302      0.721252     Biso  1.000000 O
   O40        1.0     0.748576      0.548231      0.271643     Biso  1.000000 O
   O41        1.0     0.791537      0.997216      0.774789     Biso  1.000000 O
   O42        1.0     0.791823      0.299579      0.287306     Biso  1.000000 O
   O43        1.0     0.796151      0.502478      0.715342     Biso  1.000000 O
   O44        1.0     0.796692      0.791439      0.221509     Biso  1.000000 O
   O45        1.0     0.890900      0.176736      0.007538     Biso  1.000000 O
   O46        1.0     0.896305      0.122422      0.507523     Biso  1.000000 O
   O47        1.0     0.896490      0.674367      0.507701     Biso  1.000000 O
   O48        1.0     0.899273      0.620379      0.007982     Biso  1.000000 O
