#======================================================================

# CRYSTAL DATA

#----------------------------------------------------------------------

data_VESTA_phase_1


_chemical_name_common                  ''
_cell_length_a                         10.44620
_cell_length_b                         10.48100
_cell_length_c                         7.75859
_cell_angle_alpha                      90
_cell_angle_beta                       90
_cell_angle_gamma                      90
_space_group_name_H-M_alt              'P 1'
_space_group_IT_number                 1

loop_
_space_group_symop_operation_xyz
   'x, y, z'

loop_
   _atom_site_label
   _atom_site_occupancy
   _atom_site_fract_x
   _atom_site_fract_y
   _atom_site_fract_z
   _atom_site_adp_type
   _atom_site_B_iso_or_equiv
   _atom_site_type_symbol
   W1         1.0     0.140166      0.648285      0.282423     Biso  1.000000 W
   W2         1.0     0.148323      0.638602      0.774747     Biso  1.000000 W
   W3         1.0     0.152689      0.156963      0.775204     Biso  1.000000 W
   W4         1.0     0.161016      0.146594      0.282998     Biso  1.000000 W
   W5         1.0     0.391753      0.892938      0.717278     Biso  1.000000 W
   W6         1.0     0.397289      0.407725      0.225844     Biso  1.000000 W
   W7         1.0     0.402211      0.884752      0.226809     Biso  1.000000 W
   W8         1.0     0.407515      0.399941      0.716378     Biso  1.000000 W
   W9         1.0     0.639545      0.152958      0.282239     Biso  1.000000 W
   W10        1.0     0.647004      0.142378      0.774244     Biso  1.000000 W
   W11        1.0     0.651426      0.654354      0.774464     Biso  1.000000 W
   W12        1.0     0.658452      0.643829      0.282426     Biso  1.000000 W
   W13        1.0     0.891107      0.395509      0.716532     Biso  1.000000 W
   W14        1.0     0.894400      0.904814      0.225124     Biso  1.000000 W
   W15        1.0     0.901917      0.389665      0.225840     Biso  1.000000 W
   W16        1.0     0.905159      0.898512      0.715680     Biso  1.000000 W
   O1         1.0    -0.000962      0.545075      0.237034     Biso  1.000000 O
   O2         1.0     0.000439      0.250596      0.768258     Biso  1.000000 O
   O3         1.0     0.000486      0.746524      0.721636     Biso  1.000000 O
   O4         1.0     0.001761      0.051256      0.272744     Biso  1.000000 O
   O5         1.0     0.045921      0.496625      0.775448     Biso  1.000000 O
   O6         1.0     0.046121      0.795325      0.287183     Biso  1.000000 O
   O7         1.0     0.051063      1.001880      0.715797     Biso  1.000000 O
   O8         1.0     0.051384      0.293425      0.221347     Biso  1.000000 O
   O9         1.0     0.146025      0.672536      0.008394     Biso  1.000000 O
   O10        1.0     0.150169      0.618702      0.508113     Biso  1.000000 O
   O11        1.0     0.151375      0.177018      0.508429     Biso  1.000000 O
   O12        1.0     0.154898      0.122327      0.008662     Biso  1.000000 O
   O13        1.0     0.249664      0.790526      0.716792     Biso  1.000000 O
   O14        1.0     0.250056      0.501761      0.220986     Biso  1.000000 O
   O15        1.0     0.254933      0.996934      0.287788     Biso  1.000000 O
   O16        1.0     0.255331      0.298611      0.775986     Biso  1.000000 O
   O17        1.0     0.297694      0.744815      0.271389     Biso  1.000000 O
   O18        1.0     0.298643      0.049467      0.722624     Biso  1.000000 O
   O19        1.0     0.299293      0.545000      0.769169     Biso  1.000000 O
   O20        1.0     0.301236      0.250965      0.236654     Biso  1.000000 O
   O21        1.0     0.372368      0.894716     -0.007635     Biso  1.000000 O
   O22        1.0     0.372789      0.402027      0.491568     Biso  1.000000 O
   O23        1.0     0.425735      0.890725      0.492138     Biso  1.000000 O
   O24        1.0     0.427957      0.398388     -0.008230     Biso  1.000000 O
   O25        1.0     0.499314      0.048140      0.237813     Biso  1.000000 O
   O26        1.0     0.499995      0.747678      0.768636     Biso  1.000000 O
   O27        1.0     0.501080      0.249302      0.721373     Biso  1.000000 O
   O28        1.0     0.501594      0.548231      0.271957     Biso  1.000000 O
   O29        1.0     0.544671      0.997216      0.774887     Biso  1.000000 O
   O30        1.0     0.544958      0.299579      0.287614     Biso  1.000000 O
   O31        1.0     0.549297      0.502478      0.715465     Biso  1.000000 O
   O32        1.0     0.549840      0.791439      0.221845     Biso  1.000000 O
   O33        1.0     0.644303      0.176736      0.007751     Biso  1.000000 O
   O34        1.0     0.649723      0.122422      0.507736     Biso  1.000000 O
   O35        1.0     0.649909      0.674367      0.507913     Biso  1.000000 O
   O36        1.0     0.652699      0.620379      0.008195     Biso  1.000000 O
   O37        1.0     0.748190      0.294240      0.715894     Biso  1.000000 O
   O38        1.0     0.748579      1.003070      0.219666     Biso  1.000000 O
   O39        1.0     0.753346      0.796504      0.775615     Biso  1.000000 O
   O40        1.0     0.753699      0.497981      0.286637     Biso  1.000000 O
   O41        1.0     0.796600      0.249382      0.270597     Biso  1.000000 O
   O42        1.0     0.796677      0.546576      0.722947     Biso  1.000000 O
   O43        1.0     0.798374      0.049210      0.769502     Biso  1.000000 O
   O44        1.0     0.799218      0.748793      0.235783     Biso  1.000000 O
   O45        1.0     0.869984      0.899969      0.491085     Biso  1.000000 O
   O46        1.0     0.871749      0.398168     -0.008568     Biso  1.000000 O
   O47        1.0     0.924469      0.394835      0.491271     Biso  1.000000 O
   O48        1.0     0.926394      0.896557     -0.008661     Biso  1.000000 O
