#======================================================================

# CRYSTAL DATA

#----------------------------------------------------------------------

data_VESTA_phase_1


_chemical_name_common                  ''
_cell_length_a                         7.32335
_cell_length_b                         7.74937
_cell_length_c                         7.32335
_cell_angle_alpha                      90
_cell_angle_beta                       90
_cell_angle_gamma                      90
_space_group_name_H-M_alt              'P 1'
_space_group_IT_number                 1

loop_
_space_group_symop_operation_xyz
   'x, y, z'

loop_
   _atom_site_label
   _atom_site_occupancy
   _atom_site_fract_x
   _atom_site_fract_y
   _atom_site_fract_z
   _atom_site_adp_type
   _atom_site_B_iso_or_equiv
   _atom_site_type_symbol
   W1         1.0     0.231500      0.281860      0.017470     Biso  1.000000 W
   W2         1.0     0.768500      0.718140      0.982530     Biso  1.000000 W
   W3         1.0     0.268500      0.218140      0.517470     Biso  1.000000 W
   W4         1.0     0.731500      0.781860      0.482530     Biso  1.000000 W
   W5         1.0     0.768500      0.281860      0.482530     Biso  1.000000 W
   W6         1.0     0.231500      0.718140      0.517470     Biso  1.000000 W
   W7         1.0     0.731500      0.218140      0.982530     Biso  1.000000 W
   W8         1.0     0.268500      0.781860      0.017470     Biso  1.000000 W
   O1         1.0     0.215870      0.008320      0.005430     Biso  1.000000 O
   O2         1.0     0.784130      0.991680      0.994570     Biso  1.000000 O
   O3         1.0     0.284130      0.491680      0.505430     Biso  1.000000 O
   O4         1.0     0.715870      0.508320      0.494570     Biso  1.000000 O
   O5         1.0     0.784130      0.008320      0.494570     Biso  1.000000 O
   O6         1.0     0.215870      0.991680      0.505430     Biso  1.000000 O
   O7         1.0     0.715870      0.491680      0.994570     Biso  1.000000 O
   O8         1.0     0.284130      0.508320      0.005430     Biso  1.000000 O
   O9         1.0     0.505060      0.214990      0.449540     Biso  1.000000 O
   O10        1.0     0.494940      0.785010      0.550460     Biso  1.000000 O
   O11        1.0     0.994940      0.285010      0.949540     Biso  1.000000 O
   O12        1.0     0.005060      0.714990      0.050460     Biso  1.000000 O
   O13        1.0     0.494940      0.214990      0.050460     Biso  1.000000 O
   O14        1.0     0.505060      0.785010      0.949540     Biso  1.000000 O
   O15        1.0     0.005060      0.285010      0.550460     Biso  1.000000 O
   O16        1.0     0.994940      0.714990      0.449540     Biso  1.000000 O
   O17        1.0     0.699540      0.242360      0.742330     Biso  1.000000 O
   O18        1.0     0.300460      0.757640      0.257670     Biso  1.000000 O
   O19        1.0     0.800460      0.257640      0.242330     Biso  1.000000 O
   O20        1.0     0.199540      0.742360      0.757670     Biso  1.000000 O
   O21        1.0     0.300460      0.242360      0.757670     Biso  1.000000 O
   O22        1.0     0.699540      0.757640      0.242330     Biso  1.000000 O
   O23        1.0     0.199540      0.257640      0.257670     Biso  1.000000 O
   O24        1.0     0.800460      0.742360      0.742330     Biso  1.000000 O
