#======================================================================

# CRYSTAL DATA

#----------------------------------------------------------------------

data_VESTA_phase_1


_chemical_name_common                  ''
_cell_length_a                         7.3233489990
_cell_length_b                         7.7493700981
_cell_length_c                         7.3233489990
_cell_angle_alpha                      90
_cell_angle_beta                       90
_cell_angle_gamma                      90
_space_group_name_H-M_alt              'P 1'
_space_group_IT_number                 1

loop_
_space_group_symop_operation_xyz
   'x, y, z'
   '-x, -y, -z'
   '-x+1/2, y, -z'
   'x+1/2, -y, z'
   'z+1/4, y, -x+1/4'
   '-z+1/4, -y, x+1/4'
   '-z+1/4, y, x+3/4'
   'z+1/4, -y, -x+3/4'
   '-z+1/4, -y+1/2, -x+3/4'
   'z+1/4, y+1/2, x+3/4'
   'z+1/4, -y+1/2, x+1/4'
   '-z+1/4, y+1/2, -x+1/4'
   'x+1/2, -y+1/2, -z'
   '-x+1/2, y+1/2, z'
   '-x, -y+1/2, z'
   'x, y+1/2, -z'
   'x+1/2, y, z+1/2'
   '-x+1/2, -y, -z+1/2'
   '-x, y, -z+1/2'
   'x, -y, z+1/2'
   'z+3/4, y, -x+3/4'
   '-z+3/4, -y, x+3/4'
   '-z+3/4, y, x+1/4'
   'z+3/4, -y, -x+1/4'
   '-z+3/4, -y+1/2, -x+1/4'
   'z+3/4, y+1/2, x+1/4'
   'z+3/4, -y+1/2, x+3/4'
   '-z+3/4, y+1/2, -x+3/4'
   'x, -y+1/2, -z+1/2'
   '-x, y+1/2, z+1/2'
   '-x+1/2, -y+1/2, z+1/2'
   'x+1/2, y+1/2, -z+1/2'

loop_
   _atom_site_label
   _atom_site_occupancy
   _atom_site_fract_x
   _atom_site_fract_y
   _atom_site_fract_z
   _atom_site_adp_type
   _atom_site_B_iso_or_equiv
   _atom_site_type_symbol
   W1         1.0     0.250000      0.293200      0.000000     Biso  1.000000 W
   O1         1.0     0.250000      0.029750      0.000000     Biso  1.000000 O
   O2         1.0     0.000000      0.250000      0.007920     Biso  1.000000 O
