#======================================================================

# CRYSTAL DATA

#----------------------------------------------------------------------

data_VESTA_phase_1


_chemical_name_common                  ''
_cell_length_a                         10.49260
_cell_length_b                         10.53360
_cell_length_c                         7.78153
_cell_angle_alpha                      90
_cell_angle_beta                       90
_cell_angle_gamma                      90
_space_group_name_H-M_alt              'P 1'
_space_group_IT_number                 1

loop_
_space_group_symop_operation_xyz
   'x, y, z'

loop_
   _atom_site_label
   _atom_site_occupancy
   _atom_site_fract_x
   _atom_site_fract_y
   _atom_site_fract_z
   _atom_site_adp_type
   _atom_site_B_iso_or_equiv
   _atom_site_type_symbol
   W1         1.0     0.141406      0.639278      0.773200     Biso  1.000000 W
   W2         1.0     0.141769      0.651765      0.281033     Biso  1.000000 W
   W3         1.0     0.153543      0.155472      0.772385     Biso  1.000000 W
   W4         1.0     0.154823      0.143238      0.281518     Biso  1.000000 W
   W5         1.0     0.388986      0.890961      0.716214     Biso  1.000000 W
   W6         1.0     0.392543      0.406124      0.227068     Biso  1.000000 W
   W7         1.0     0.401615      0.886610      0.225360     Biso  1.000000 W
   W8         1.0     0.404670      0.402499      0.718549     Biso  1.000000 W
   W9         1.0     0.636601      0.153172      0.281227     Biso  1.000000 W
   W10        1.0     0.642911      0.141156      0.773851     Biso  1.000000 W
   W11        1.0     0.648217      0.656021      0.772774     Biso  1.000000 W
   W12        1.0     0.655983      0.643285      0.281343     Biso  1.000000 W
   W13        1.0     0.885340      0.398320      0.717392     Biso  1.000000 W
   W14        1.0     0.893092      0.906665      0.227378     Biso  1.000000 W
   W15        1.0     0.898423      0.388250      0.227082     Biso  1.000000 W
   W16        1.0     0.905252      0.897668      0.718716     Biso  1.000000 W
   O1         1.0    -0.002004      0.544438      0.244098     Biso  1.000000 O
   O2         1.0    -0.001597      0.251501      0.767214     Biso  1.000000 O
   O3         1.0     0.000316      0.748769      0.726901     Biso  1.000000 O
   O4         1.0     0.001117      0.049176      0.262226     Biso  1.000000 O
   O5         1.0     0.043014      0.495944      0.771389     Biso  1.000000 O
   O6         1.0     0.043577      0.794534      0.278004     Biso  1.000000 O
   O7         1.0     0.047796      0.292707      0.225226     Biso  1.000000 O
   O8         1.0     0.049455      0.001642      0.722010     Biso  1.000000 O
   O9         1.0     0.145259      0.624693      0.506899     Biso  1.000000 O
   O10        1.0     0.146318      0.667079      1.007710     Biso  1.000000 O
   O11        1.0     0.146699      0.170746      0.507378     Biso  1.000000 O
   O12        1.0     0.154255      0.127679      1.006520     Biso  1.000000 O
   O13        1.0     0.247405      0.502368      0.229064     Biso  1.000000 O
   O14        1.0     0.248456      0.789598      0.720421     Biso  1.000000 O
   O15        1.0     0.252778      0.297524      0.767066     Biso  1.000000 O
   O16        1.0     0.253446     -0.003079      0.282177     Biso  1.000000 O
   O17        1.0     0.294350      0.544163      0.761652     Biso  1.000000 O
   O18        1.0     0.295487      0.252170      0.242494     Biso  1.000000 O
   O19        1.0     0.295490      0.746273      0.268586     Biso  1.000000 O
   O20        1.0     0.296063      0.048258      0.723065     Biso  1.000000 O
   O21        1.0     0.373879      0.896375      0.991526     Biso  1.000000 O
   O22        1.0     0.378456      0.403277      0.491977     Biso  1.000000 O
   O23        1.0     0.416387      0.396961      0.991957     Biso  1.000000 O
   O24        1.0     0.419854      0.888572      0.491307     Biso  1.000000 O
   O25        1.0     0.497117      0.046986      0.242836     Biso  1.000000 O
   O26        1.0     0.497915      0.748584      0.768904     Biso  1.000000 O
   O27        1.0     0.499853      0.251750      0.726701     Biso  1.000000 O
   O28        1.0     0.500792      0.545657      0.262495     Biso  1.000000 O
   O29        1.0     0.540981     -0.002714      0.766797     Biso  1.000000 O
   O30        1.0     0.541481      0.297958      0.280528     Biso  1.000000 O
   O31        1.0     0.545878      0.790303      0.223525     Biso  1.000000 O
   O32        1.0     0.546975      0.503188      0.726216     Biso  1.000000 O
   O33        1.0     0.639711      0.168807      1.008470     Biso  1.000000 O
   O34        1.0     0.641358      0.667639      0.507338     Biso  1.000000 O
   O35        1.0     0.648210      0.130231      0.507606     Biso  1.000000 O
   O36        1.0     0.655272      0.627727      1.006800     Biso  1.000000 O
   O37        1.0     0.746116      0.003079      0.228168     Biso  1.000000 O
   O38        1.0     0.746322      0.294461      0.728424     Biso  1.000000 O
   O39        1.0     0.751110      0.795986      0.762479     Biso  1.000000 O
   O40        1.0     0.751563      0.498217      0.282263     Biso  1.000000 O
   O41        1.0     0.792720      0.249598      0.261028     Biso  1.000000 O
   O42        1.0     0.793179      0.547359      0.721163     Biso  1.000000 O
   O43        1.0     0.793343      0.047758      0.766198     Biso  1.000000 O
   O44        1.0     0.794862      0.750648      0.248145     Biso  1.000000 O
   O45        1.0     0.876525      0.405106      0.992427     Biso  1.000000 O
   O46        1.0     0.878999      0.904878      0.492206     Biso  1.000000 O
   O47        1.0     0.913608      0.389128      0.491902     Biso  1.000000 O
   O48        1.0     0.913871      0.891276      0.992225     Biso  1.000000 O
