#======================================================================

# CRYSTAL DATA

#----------------------------------------------------------------------

data_VESTA_phase_1


_chemical_name_common                  ''
_cell_length_a                         10.51780
_cell_length_b                         10.54090
_cell_length_c                         7.77989
_cell_angle_alpha                      90
_cell_angle_beta                       90
_cell_angle_gamma                      90
_space_group_name_H-M_alt              'P 1'
_space_group_IT_number                 1

loop_
_space_group_symop_operation_xyz
   'x, y, z'

loop_
   _atom_site_label
   _atom_site_occupancy
   _atom_site_fract_x
   _atom_site_fract_y
   _atom_site_fract_z
   _atom_site_adp_type
   _atom_site_B_iso_or_equiv
   _atom_site_type_symbol
   W1         1.0     0.136483      0.893110      0.715436     Biso  1.000000 W
   W2         1.0     0.147199      0.410871      0.231179     Biso  1.000000 W
   W3         1.0     0.150261      0.880078      0.231179     Biso  1.000000 W
   W4         1.0     0.160630      0.396740      0.715436     Biso  1.000000 W
   W5         1.0     0.384166      0.152359      0.280911     Biso  1.000000 W
   W6         1.0     0.396258      0.137965      0.771564     Biso  1.000000 W
   W7         1.0     0.396978      0.656807      0.773254     Biso  1.000000 W
   W8         1.0     0.409988      0.644125      0.280733     Biso  1.000000 W
   W9         1.0     0.635504      0.396999      0.718842     Biso  1.000000 W
   W10        1.0     0.643525      0.907427      0.227181     Biso  1.000000 W
   W11        1.0     0.648679      0.386984      0.226712     Biso  1.000000 W
   W12        1.0     0.656260      0.895727      0.717683     Biso  1.000000 W
   W13        1.0     0.883908      0.651186      0.280841     Biso  1.000000 W
   W14        1.0     0.893396      0.637618      0.772091     Biso  1.000000 W
   W15        1.0     0.897392      0.159977      0.773811     Biso  1.000000 W
   W16        1.0     0.905149      0.148341      0.281015     Biso  1.000000 W
   O1         1.0    -0.002998      0.789648      0.733407     Biso  1.000000 O
   O2         1.0    -0.001916      0.503218      0.228307     Biso  1.000000 O
   O3         1.0     0.002228      0.299633      0.757213     Biso  1.000000 O
   O4         1.0     0.002231     -0.001136      0.280637     Biso  1.000000 O
   O5         1.0     0.044150      0.051364      0.717250     Biso  1.000000 O
   O6         1.0     0.045030      0.743831      0.252158     Biso  1.000000 O
   O7         1.0     0.048805      0.541357      0.766148     Biso  1.000000 O
   O8         1.0     0.049485      0.254958      0.262727     Biso  1.000000 O
   O9         1.0     0.135195      0.902759      0.992198     Biso  1.000000 O
   O10        1.0     0.137695      0.411938      0.492197     Biso  1.000000 O
   O11        1.0     0.159577      0.878418      0.492197     Biso  1.000000 O
   O12        1.0     0.162070      0.387598      0.992198     Biso  1.000000 O
   O13        1.0     0.246550      0.047896      0.262727     Biso  1.000000 O
   O14        1.0     0.248271      0.748378      0.766148     Biso  1.000000 O
   O15        1.0     0.251560      0.250458      0.717250     Biso  1.000000 O
   O16        1.0     0.252415      0.547071      0.252158     Biso  1.000000 O
   O17        1.0     0.291926     -0.003423      0.746984     Biso  1.000000 O
   O18        1.0     0.292088      0.299177      0.281892     Biso  1.000000 O
   O19        1.0     0.296778      0.789281      0.232993     Biso  1.000000 O
   O20        1.0     0.297098      0.501739      0.736414     Biso  1.000000 O
   O21        1.0     0.380500      0.161873      1.006350     Biso  1.000000 O
   O22        1.0     0.391629      0.661474      0.507581     Biso  1.000000 O
   O23        1.0     0.407026      0.632835      1.008360     Biso  1.000000 O
   O24        1.0     0.409658      0.135748      0.506784     Biso  1.000000 O
   O25        1.0     0.496288      0.293423      0.738268     Biso  1.000000 O
   O26        1.0     0.496991      0.003080      0.224930     Biso  1.000000 O
   O27        1.0     0.501493      0.795498      0.759560     Biso  1.000000 O
   O28        1.0     0.501982      0.497753      0.278581     Biso  1.000000 O
   O29        1.0     0.542303      0.545280      0.724115     Biso  1.000000 O
   O30        1.0     0.542433      0.249700      0.248886     Biso  1.000000 O
   O31        1.0     0.544725      0.046375      0.772267     Biso  1.000000 O
   O32        1.0     0.547253      0.750579      0.251283     Biso  1.000000 O
   O33        1.0     0.627416      0.905577      0.492120     Biso  1.000000 O
   O34        1.0     0.632440      0.406259      0.991630     Biso  1.000000 O
   O35        1.0     0.658534      0.387136      0.491596     Biso  1.000000 O
   O36        1.0     0.666177      0.889873      0.992704     Biso  1.000000 O
   O37        1.0     0.746416      0.544479      0.253245     Biso  1.000000 O
   O38        1.0     0.747916      0.253138      0.765404     Biso  1.000000 O
   O39        1.0     0.748432      0.747269      0.720530     Biso  1.000000 O
   O40        1.0     0.749052      0.052606      0.262002     Biso  1.000000 O
   O41        1.0     0.790443      0.498313      0.756027     Biso  1.000000 O
   O42        1.0     0.790677      0.797333      0.282254     Biso  1.000000 O
   O43        1.0     0.794625      0.003423      0.727915     Biso  1.000000 O
   O44        1.0     0.796590      0.295935      0.229718     Biso  1.000000 O
   O45        1.0     0.883420      0.664463      1.006700     Biso  1.000000 O
   O46        1.0     0.894118      0.170819      0.507590     Biso  1.000000 O
   O47        1.0     0.900708      0.132708      1.008370     Biso  1.000000 O
   O48        1.0     0.902805      0.629731      0.506911     Biso  1.000000 O
