#======================================================================

# CRYSTAL DATA

#----------------------------------------------------------------------

data_VESTA_phase_1


_chemical_name_common                  ''
_cell_length_a                         10.51210
_cell_length_b                         10.54090
_cell_length_c                         7.77989
_cell_angle_alpha                      90
_cell_angle_beta                       90
_cell_angle_gamma                      90
_space_group_name_H-M_alt              'P 1'
_space_group_IT_number                 1

loop_
_space_group_symop_operation_xyz
   'x, y, z'

loop_
   _atom_site_label
   _atom_site_occupancy
   _atom_site_fract_x
   _atom_site_fract_y
   _atom_site_fract_z
   _atom_site_adp_type
   _atom_site_B_iso_or_equiv
   _atom_site_type_symbol
   W1         1.0     0.137690      0.152359      0.280911     Biso  1.000000 W
   W2         1.0     0.149788      0.137965      0.771564     Biso  1.000000 W
   W3         1.0     0.150509      0.656807      0.773254     Biso  1.000000 W
   W4         1.0     0.163526      0.644125      0.280733     Biso  1.000000 W
   W5         1.0     0.389162      0.396999      0.718842     Biso  1.000000 W
   W6         1.0     0.397188      0.907427      0.227181     Biso  1.000000 W
   W7         1.0     0.402344      0.386984      0.226712     Biso  1.000000 W
   W8         1.0     0.409930      0.895727      0.717683     Biso  1.000000 W
   W9         1.0     0.637700      0.651186      0.280841     Biso  1.000000 W
   W10        1.0     0.647193      0.637618      0.772091     Biso  1.000000 W
   W11        1.0     0.651191      0.159977      0.773811     Biso  1.000000 W
   W12        1.0     0.658952      0.148341      0.281015     Biso  1.000000 W
   W13        1.0     0.889459      0.892346      0.718856     Biso  1.000000 W
   W14        1.0     0.893266      0.408529      0.225558     Biso  1.000000 W
   W15        1.0     0.901448      0.887030      0.227148     Biso  1.000000 W
   W16        1.0     0.906163      0.402378      0.716582     Biso  1.000000 W
   O1         1.0    -0.000569      0.048780      0.254373     Biso  1.000000 O
   O2         1.0     0.000861      0.749288      0.764134     Biso  1.000000 O
   O3         1.0     0.001851      0.251317      0.719573     Biso  1.000000 O
   O4         1.0     0.002606      0.548081      0.260548     Biso  1.000000 O
   O5         1.0     0.045400     -0.003423      0.746984     Biso  1.000000 O
   O6         1.0     0.045562      0.299177      0.281892     Biso  1.000000 O
   O7         1.0     0.050255      0.789281      0.232993     Biso  1.000000 O
   O8         1.0     0.050575      0.501739      0.736414     Biso  1.000000 O
   O9         1.0     0.134022      0.161873      1.006350     Biso  1.000000 O
   O10        1.0     0.145157      0.661474      0.507581     Biso  1.000000 O
   O11        1.0     0.160562      0.632835      1.008360     Biso  1.000000 O
   O12        1.0     0.163195      0.135748      0.506784     Biso  1.000000 O
   O13        1.0     0.249871      0.293423      0.738268     Biso  1.000000 O
   O14        1.0     0.250575      0.003080      0.224930     Biso  1.000000 O
   O15        1.0     0.255079      0.795498      0.759560     Biso  1.000000 O
   O16        1.0     0.255569      0.497753      0.278581     Biso  1.000000 O
   O17        1.0     0.295911      0.545280      0.724115     Biso  1.000000 O
   O18        1.0     0.296042      0.249700      0.248886     Biso  1.000000 O
   O19        1.0     0.298335      0.046375      0.772267     Biso  1.000000 O
   O20        1.0     0.300865      0.750579      0.251283     Biso  1.000000 O
   O21        1.0     0.381070      0.905577      0.492120     Biso  1.000000 O
   O22        1.0     0.386097      0.406259      0.991630     Biso  1.000000 O
   O23        1.0     0.412205      0.387136      0.491596     Biso  1.000000 O
   O24        1.0     0.419852      0.889873      0.992704     Biso  1.000000 O
   O25        1.0     0.500134      0.544479      0.253245     Biso  1.000000 O
   O26        1.0     0.501635      0.253138      0.765404     Biso  1.000000 O
   O27        1.0     0.502151      0.747269      0.720530     Biso  1.000000 O
   O28        1.0     0.502772      0.052606      0.262002     Biso  1.000000 O
   O29        1.0     0.544185      0.498313      0.756027     Biso  1.000000 O
   O30        1.0     0.544419      0.797333      0.282254     Biso  1.000000 O
   O31        1.0     0.548369      0.003423      0.727915     Biso  1.000000 O
   O32        1.0     0.550335      0.295935      0.229718     Biso  1.000000 O
   O33        1.0     0.637212      0.664463      1.006700     Biso  1.000000 O
   O34        1.0     0.647915      0.170819      0.507590     Biso  1.000000 O
   O35        1.0     0.654509      0.132708      1.008370     Biso  1.000000 O
   O36        1.0     0.656608      0.629731      0.506911     Biso  1.000000 O
   O37        1.0     0.747855      0.791234      0.730400     Biso  1.000000 O
   O38        1.0     0.749340      0.504773      0.223620     Biso  1.000000 O
   O39        1.0     0.753682      0.000083      0.279383     Biso  1.000000 O
   O40        1.0     0.753854      0.300078      0.767442     Biso  1.000000 O
   O41        1.0     0.794512      0.748685      0.257503     Biso  1.000000 O
   O42        1.0     0.794558      0.049184      0.726879     Biso  1.000000 O
   O43        1.0     0.796713      0.545213      0.769972     Biso  1.000000 O
   O44        1.0     0.798567      0.254201      0.242438     Biso  1.000000 O
   O45        1.0     0.874875      0.406129      0.491629     Biso  1.000000 O
   O46        1.0     0.880846      0.899530      0.991852     Biso  1.000000 O
   O47        1.0     0.914017      0.889490      0.491754     Biso  1.000000 O
   O48        1.0     0.921206      0.398106      0.991837     Biso  1.000000 O
