#======================================================================

# CRYSTAL DATA

#----------------------------------------------------------------------

data_VESTA_phase_1


_chemical_name_common                  ''
_cell_length_a                         10.52470
_cell_length_b                         10.53270
_cell_length_c                         7.77989
_cell_angle_alpha                      90
_cell_angle_beta                       90
_cell_angle_gamma                      90
_space_group_name_H-M_alt              'P 1'
_space_group_IT_number                 1

loop_
_space_group_symop_operation_xyz
   'x, y, z'

loop_
   _atom_site_label
   _atom_site_occupancy
   _atom_site_fract_x
   _atom_site_fract_y
   _atom_site_fract_z
   _atom_site_adp_type
   _atom_site_B_iso_or_equiv
   _atom_site_type_symbol
   W1         1.0     0.139124      0.393984      0.718842     Biso  1.000000 W
   W2         1.0     0.147140      0.904809      0.227181     Biso  1.000000 W
   W3         1.0     0.152290      0.383961      0.226712     Biso  1.000000 W
   W4         1.0     0.159867      0.893100      0.717683     Biso  1.000000 W
   W5         1.0     0.387365      0.648369      0.280841     Biso  1.000000 W
   W6         1.0     0.396846      0.634790      0.772091     Biso  1.000000 W
   W7         1.0     0.400839      0.156777      0.773811     Biso  1.000000 W
   W8         1.0     0.408591      0.145132      0.281015     Biso  1.000000 W
   W9         1.0     0.638822      0.889717      0.718856     Biso  1.000000 W
   W10        1.0     0.642624      0.405523      0.225558     Biso  1.000000 W
   W11        1.0     0.650797      0.884396      0.227148     Biso  1.000000 W
   W12        1.0     0.655506      0.399367      0.716582     Biso  1.000000 W
   W13        1.0     0.886903      0.154037      0.280756     Biso  1.000000 W
   W14        1.0     0.890985      0.141416      0.771883     Biso  1.000000 W
   W15        1.0     0.900925      0.652628      0.773906     Biso  1.000000 W
   W16        1.0     0.901642      0.640592      0.281473     Biso  1.000000 W
   O1         1.0    -0.003188      0.291766      0.731355     Biso  1.000000 O
   O2         1.0    -0.001678      0.001592      0.224364     Biso  1.000000 O
   O3         1.0     0.002601      0.794051      0.765851     Biso  1.000000 O
   O4         1.0     0.002827      0.496522      0.278261     Biso  1.000000 O
   O5         1.0     0.045985      0.542380      0.724115     Biso  1.000000 O
   O6         1.0     0.046115      0.246570      0.248886     Biso  1.000000 O
   O7         1.0     0.048405      0.043087      0.772267     Biso  1.000000 O
   O8         1.0     0.050932      0.747839      0.251283     Biso  1.000000 O
   O9         1.0     0.131042      0.902957      0.492120     Biso  1.000000 O
   O10        1.0     0.136062      0.403251      0.991630     Biso  1.000000 O
   O11        1.0     0.162139      0.384113      0.491596     Biso  1.000000 O
   O12        1.0     0.169777      0.887241      0.992704     Biso  1.000000 O
   O13        1.0     0.249964      0.541578      0.253245     Biso  1.000000 O
   O14        1.0     0.251462      0.250011      0.765404     Biso  1.000000 O
   O15        1.0     0.251978      0.744527      0.720530     Biso  1.000000 O
   O16        1.0     0.252598      0.049323      0.262002     Biso  1.000000 O
   O17        1.0     0.293961      0.495377      0.756027     Biso  1.000000 O
   O18        1.0     0.294196      0.794630      0.282254     Biso  1.000000 O
   O19        1.0     0.298140      0.000491      0.727915     Biso  1.000000 O
   O20        1.0     0.300104      0.292841      0.229718     Biso  1.000000 O
   O21        1.0     0.386877      0.661656      1.006700     Biso  1.000000 O
   O22        1.0     0.397567      0.167628      0.507590     Biso  1.000000 O
   O23        1.0     0.404153      0.129487      1.008370     Biso  1.000000 O
   O24        1.0     0.406249      0.626897      0.506911     Biso  1.000000 O
   O25        1.0     0.497387      0.788526      0.730400     Biso  1.000000 O
   O26        1.0     0.498871      0.501841      0.223620     Biso  1.000000 O
   O27        1.0     0.503208     -0.002852      0.279383     Biso  1.000000 O
   O28        1.0     0.503380      0.296987      0.767442     Biso  1.000000 O
   O29        1.0     0.543988      0.745943      0.257503     Biso  1.000000 O
   O30        1.0     0.544034      0.045898      0.726879     Biso  1.000000 O
   O31        1.0     0.546187      0.542314      0.769972     Biso  1.000000 O
   O32        1.0     0.548038      0.251075      0.242438     Biso  1.000000 O
   O33        1.0     0.624256      0.403121      0.491629     Biso  1.000000 O
   O34        1.0     0.630219      0.896906      0.991852     Biso  1.000000 O
   O35        1.0     0.663351      0.886858      0.491754     Biso  1.000000 O
   O36        1.0     0.670531      0.395091      0.991837     Biso  1.000000 O
   O37        1.0     0.747922      0.249047      0.721896     Biso  1.000000 O
   O38        1.0     0.748094      0.046377      0.246020     Biso  1.000000 O
   O39        1.0     0.748575      0.546194      0.268938     Biso  1.000000 O
   O40        1.0     0.749231      0.747457      0.762119     Biso  1.000000 O
   O41        1.0     0.791010     -0.003037      0.762999     Biso  1.000000 O
   O42        1.0     0.790986      0.298824      0.282535     Biso  1.000000 O
   O43        1.0     0.794957      0.501853      0.721065     Biso  1.000000 O
   O44        1.0     0.797005      0.790567      0.229726     Biso  1.000000 O
   O45        1.0     0.887159      0.169386      1.006280     Biso  1.000000 O
   O46        1.0     0.897012      0.624950      1.008110     Biso  1.000000 O
   O47        1.0     0.898080      0.667365      0.507392     Biso  1.000000 O
   O48        1.0     0.899360      0.128611      0.506829     Biso  1.000000 O
