#======================================================================

# CRYSTAL DATA

#----------------------------------------------------------------------

data_VESTA_phase_1


_chemical_name_common                  ''
_cell_length_a                         10.47940
_cell_length_b                         10.53270
_cell_length_c                         7.78309
_cell_angle_alpha                      90
_cell_angle_beta                       90
_cell_angle_gamma                      90
_space_group_name_H-M_alt              'P 1'
_space_group_IT_number                 1

loop_
_space_group_symop_operation_xyz
   'x, y, z'

loop_
   _atom_site_label
   _atom_site_occupancy
   _atom_site_fract_x
   _atom_site_fract_y
   _atom_site_fract_z
   _atom_site_adp_type
   _atom_site_B_iso_or_equiv
   _atom_site_type_symbol
   W1         1.0     0.137995      0.648369      0.281137     Biso  1.000000 W
   W2         1.0     0.147517      0.634790      0.772185     Biso  1.000000 W
   W3         1.0     0.151528      0.156777      0.773904     Biso  1.000000 W
   W4         1.0     0.159313      0.145132      0.281311     Biso  1.000000 W
   W5         1.0     0.390539      0.889717      0.718972     Biso  1.000000 W
   W6         1.0     0.394358      0.405523      0.225877     Biso  1.000000 W
   W7         1.0     0.402566      0.884396      0.227466     Biso  1.000000 W
   W8         1.0     0.407296      0.399367      0.716699     Biso  1.000000 W
   W9         1.0     0.639692      0.154037      0.281052     Biso  1.000000 W
   W10        1.0     0.643792      0.141416      0.771976     Biso  1.000000 W
   W11        1.0     0.653775      0.652628      0.773999     Biso  1.000000 W
   W12        1.0     0.654495      0.640592      0.281768     Biso  1.000000 W
   W13        1.0     0.890662      0.899257      0.224852     Biso  1.000000 W
   W14        1.0     0.891504      0.390673      0.718247     Biso  1.000000 W
   W15        1.0     0.903379      0.900736      0.716486     Biso  1.000000 W
   W16        1.0     0.903412      0.391301      0.226692     Biso  1.000000 W
   O1         1.0    -0.000029      0.542867      0.247303     Biso  1.000000 O
   O2         1.0     0.000753      0.250267      0.761443     Biso  1.000000 O
   O3         1.0    -0.000226      0.746245      0.723264     Biso  1.000000 O
   O4         1.0     0.000534      0.048755      0.268266     Biso  1.000000 O
   O5         1.0     0.044188      0.495377      0.756128     Biso  1.000000 O
   O6         1.0     0.044423      0.794630      0.282550     Biso  1.000000 O
   O7         1.0     0.048385      0.000491      0.728027     Biso  1.000000 O
   O8         1.0     0.050357      0.292841      0.230035     Biso  1.000000 O
   O9         1.0     0.137505      0.661656      1.006900     Biso  1.000000 O
   O10        1.0     0.148242      0.167628      0.507793     Biso  1.000000 O
   O11        1.0     0.154856      0.129487      1.008570     Biso  1.000000 O
   O12        1.0     0.156961      0.626897      0.507114     Biso  1.000000 O
   O13        1.0     0.248493      0.788526      0.730511     Biso  1.000000 O
   O14        1.0     0.249983      0.501841      0.223939     Biso  1.000000 O
   O15        1.0     0.254339     -0.002852      0.279679     Biso  1.000000 O
   O16        1.0     0.254512      0.296987      0.767538     Biso  1.000000 O
   O17        1.0     0.295296      0.745943      0.257809     Biso  1.000000 O
   O18        1.0     0.295342      0.045898      0.726992     Biso  1.000000 O
   O19        1.0     0.297504      0.542314      0.770066     Biso  1.000000 O
   O20        1.0     0.299363      0.251075      0.242750     Biso  1.000000 O
   O21        1.0     0.375910      0.403121      0.491839     Biso  1.000000 O
   O22        1.0     0.381899      0.896906      0.992061     Biso  1.000000 O
   O23        1.0     0.415174      0.886858      0.491963     Biso  1.000000 O
   O24        1.0     0.422386      0.395091      0.992046     Biso  1.000000 O
   O25        1.0     0.500111      0.249047      0.722011     Biso  1.000000 O
   O26        1.0     0.500284      0.046377      0.246330     Biso  1.000000 O
   O27        1.0     0.500767      0.546194      0.269239     Biso  1.000000 O
   O28        1.0     0.501425      0.747457      0.762217     Biso  1.000000 O
   O29        1.0     0.543385     -0.003037      0.763097     Biso  1.000000 O
   O30        1.0     0.543361      0.298824      0.282830     Biso  1.000000 O
   O31        1.0     0.547349      0.501853      0.721180     Biso  1.000000 O
   O32        1.0     0.549405      0.790567      0.230043     Biso  1.000000 O
   O33        1.0     0.639950      0.169386      1.006480     Biso  1.000000 O
   O34        1.0     0.649845      0.624950      1.008320     Biso  1.000000 O
   O35        1.0     0.650918      0.667365      0.507594     Biso  1.000000 O
   O36        1.0     0.652203      0.128611      0.507032     Biso  1.000000 O
   O37        1.0     0.746876      0.293205      0.724556     Biso  1.000000 O
   O38        1.0     0.749202      0.003037      0.224118     Biso  1.000000 O
   O39        1.0     0.753241      0.498229      0.278238     Biso  1.000000 O
   O40        1.0     0.753278      0.795309      0.772237     Biso  1.000000 O
   O41        1.0     0.794481      0.251086      0.263394     Biso  1.000000 O
   O42        1.0     0.795100      0.543734      0.730297     Biso  1.000000 O
   O43        1.0     0.795998      0.048166      0.766864     Biso  1.000000 O
   O44        1.0     0.796730      0.747873      0.236179     Biso  1.000000 O
   O45        1.0     0.872436      0.897753      0.491691     Biso  1.000000 O
   O46        1.0     0.879305      0.396988      0.991428     Biso  1.000000 O
   O47        1.0     0.915666      0.394690      0.491526     Biso  1.000000 O
   O48        1.0     0.922248      0.896029      0.991619     Biso  1.000000 O
