#======================================================================

# CRYSTAL DATA

#----------------------------------------------------------------------

data_VESTA_phase_1


_chemical_name_common                  ''
_cell_length_a                         10.51080
_cell_length_b                         10.53270
_cell_length_c                         7.78109
_cell_angle_alpha                      90
_cell_angle_beta                       90
_cell_angle_gamma                      90
_space_group_name_H-M_alt              'P 1'
_space_group_IT_number                 1

loop_
_space_group_symop_operation_xyz
   'x, y, z'

loop_
   _atom_site_label
   _atom_site_occupancy
   _atom_site_fract_x
   _atom_site_fract_y
   _atom_site_fract_z
   _atom_site_adp_type
   _atom_site_B_iso_or_equiv
   _atom_site_type_symbol
   W1         1.0     0.141623      0.889717      0.719157     Biso  1.000000 W
   W2         1.0     0.145430      0.405523      0.225935     Biso  1.000000 W
   W3         1.0     0.153614      0.884396      0.227525     Biso  1.000000 W
   W4         1.0     0.158329      0.399367      0.716883     Biso  1.000000 W
   W5         1.0     0.390034      0.154037      0.281124     Biso  1.000000 W
   W6         1.0     0.394121      0.141416      0.772175     Biso  1.000000 W
   W7         1.0     0.404075      0.652628      0.774198     Biso  1.000000 W
   W8         1.0     0.404792      0.640592      0.281841     Biso  1.000000 W
   W9         1.0     0.640256      0.899257      0.224910     Biso  1.000000 W
   W10        1.0     0.641096      0.390673      0.718432     Biso  1.000000 W
   W11        1.0     0.652935      0.900736      0.716670     Biso  1.000000 W
   W12        1.0     0.652968      0.391301      0.226750     Biso  1.000000 W
   W13        1.0     0.887527      0.641835      0.772836     Biso  1.000000 W
   W14        1.0     0.890603      0.653353      0.282415     Biso  1.000000 W
   W15        1.0     0.898124      0.141374      0.281323     Biso  1.000000 W
   W16        1.0     0.903842      0.154307      0.772795     Biso  1.000000 W
   O1         1.0    -0.003032      0.789834      0.726576     Biso  1.000000 O
   O2         1.0    -0.001366      0.502341      0.225827     Biso  1.000000 O
   O3         1.0     0.002878     -0.002463      0.276922     Biso  1.000000 O
   O4         1.0     0.002765      0.298128      0.770778     Biso  1.000000 O
   O5         1.0     0.046663      0.745943      0.257875     Biso  1.000000 O
   O6         1.0     0.046709      0.045898      0.727178     Biso  1.000000 O
   O7         1.0     0.048864      0.542314      0.770264     Biso  1.000000 O
   O8         1.0     0.050718      0.251075      0.242812     Biso  1.000000 O
   O9         1.0     0.127037      0.403121      0.491965     Biso  1.000000 O
   O10        1.0     0.133008      0.896906      0.992188     Biso  1.000000 O
   O11        1.0     0.166184      0.886858      0.492090     Biso  1.000000 O
   O12        1.0     0.173375      0.395091      0.992173     Biso  1.000000 O
   O13        1.0     0.250868      0.249047      0.722196     Biso  1.000000 O
   O14        1.0     0.251040      0.046377      0.246393     Biso  1.000000 O
   O15        1.0     0.251522      0.546194      0.269308     Biso  1.000000 O
   O16        1.0     0.252178      0.747457      0.762413     Biso  1.000000 O
   O17        1.0     0.294014     -0.003037      0.763293     Biso  1.000000 O
   O18        1.0     0.293989      0.298824      0.282903     Biso  1.000000 O
   O19        1.0     0.297966      0.501853      0.721365     Biso  1.000000 O
   O20        1.0     0.300016      0.790567      0.230102     Biso  1.000000 O
   O21        1.0     0.390291      0.169386      1.006610     Biso  1.000000 O
   O22        1.0     0.400157      0.624950      1.008450     Biso  1.000000 O
   O23        1.0     0.401226      0.667365      0.507725     Biso  1.000000 O
   O24        1.0     0.402507      0.128611      0.507163     Biso  1.000000 O
   O25        1.0     0.496898      0.293205      0.724742     Biso  1.000000 O
   O26        1.0     0.499218      0.003037      0.224175     Biso  1.000000 O
   O27        1.0     0.503244      0.498229      0.278310     Biso  1.000000 O
   O28        1.0     0.503281      0.795309      0.772436     Biso  1.000000 O
   O29        1.0     0.544362      0.251086      0.263461     Biso  1.000000 O
   O30        1.0     0.544978      0.543734      0.730485     Biso  1.000000 O
   O31        1.0     0.545874      0.048166      0.767061     Biso  1.000000 O
   O32        1.0     0.546604      0.747873      0.236239     Biso  1.000000 O
   O33        1.0     0.622084      0.897753      0.491817     Biso  1.000000 O
   O34        1.0     0.628933      0.396988      0.991554     Biso  1.000000 O
   O35        1.0     0.665186      0.394690      0.491652     Biso  1.000000 O
   O36        1.0     0.671748      0.896029      0.991745     Biso  1.000000 O
   O37        1.0     0.746801      0.747964      0.726070     Biso  1.000000 O
   O38        1.0     0.747696      0.048188      0.274296     Biso  1.000000 O
   O39        1.0     0.749211      0.544156      0.241116     Biso  1.000000 O
   O40        1.0     0.749268      0.250522      0.757581     Biso  1.000000 O
   O41        1.0     0.790574      0.795763      0.281931     Biso  1.000000 O
   O42        1.0     0.790925      0.498089      0.767961     Biso  1.000000 O
   O43        1.0     0.794854      0.002815      0.716824     Biso  1.000000 O
   O44        1.0     0.797003      0.293545      0.231456     Biso  1.000000 O
   O45        1.0     0.890782      0.668050      1.007400     Biso  1.000000 O
   O46        1.0     0.893227      0.128373      1.007180     Biso  1.000000 O
   O47        1.0     0.895807      0.625544      0.508264     Biso  1.000000 O
   O48        1.0     0.901455      0.170333      0.506955     Biso  1.000000 O
