#======================================================================

# CRYSTAL DATA

#----------------------------------------------------------------------

data_VESTA_phase_1


_chemical_name_common                  ''
_cell_length_a                         10.46960
_cell_length_b                         10.53270
_cell_length_c                         7.78135
_cell_angle_alpha                      90
_cell_angle_beta                       90
_cell_angle_gamma                      90
_space_group_name_H-M_alt              'P 1'
_space_group_IT_number                 1

loop_
_space_group_symop_operation_xyz
   'x, y, z'

loop_
   _atom_site_label
   _atom_site_occupancy
   _atom_site_fract_x
   _atom_site_fract_y
   _atom_site_fract_z
   _atom_site_adp_type
   _atom_site_B_iso_or_equiv
   _atom_site_type_symbol
   W1         1.0     0.139713      0.154037      0.281148     Biso  1.000000 W
   W2         1.0     0.143816      0.141416      0.772183     Biso  1.000000 W
   W3         1.0     0.153809      0.652628      0.774205     Biso  1.000000 W
   W4         1.0     0.154529      0.640592      0.281864     Biso  1.000000 W
   W5         1.0     0.390918      0.899257      0.224936     Biso  1.000000 W
   W6         1.0     0.391761      0.390673      0.718441     Biso  1.000000 W
   W7         1.0     0.403647      0.900736      0.716680     Biso  1.000000 W
   W8         1.0     0.403680      0.391301      0.226776     Biso  1.000000 W
   W9         1.0     0.639161      0.641835      0.772843     Biso  1.000000 W
   W10        1.0     0.642248      0.653353      0.282439     Biso  1.000000 W
   W11        1.0     0.649800      0.141374      0.281347     Biso  1.000000 W
   W12        1.0     0.655540      0.154307      0.772803     Biso  1.000000 W
   W13        1.0     0.887388      0.399268      0.224628     Biso  1.000000 W
   W14        1.0     0.892916      0.885168      0.718830     Biso  1.000000 W
   W15        1.0     0.899710      0.407478      0.717205     Biso  1.000000 W
   W16        1.0     0.905065      0.891566      0.227216     Biso  1.000000 W
   O1         1.0    -0.002151      0.250575      0.727122     Biso  1.000000 O
   O2         1.0     0.000087      0.046952      0.241506     Biso  1.000000 O
   O3         1.0    -0.000981      0.544802      0.273492     Biso  1.000000 O
   O4         1.0     0.000634      0.746927      0.757309     Biso  1.000000 O
   O5         1.0     0.043315     -0.003037      0.763301     Biso  1.000000 O
   O6         1.0     0.043291      0.298824      0.282926     Biso  1.000000 O
   O7         1.0     0.047283      0.501853      0.721374     Biso  1.000000 O
   O8         1.0     0.049341      0.790567      0.230127     Biso  1.000000 O
   O9         1.0     0.139971      0.169386      1.006630     Biso  1.000000 O
   O10        1.0     0.149875      0.624950      1.008460     Biso  1.000000 O
   O11        1.0     0.150948      0.667365      0.507741     Biso  1.000000 O
   O12        1.0     0.152235      0.128611      0.507179     Biso  1.000000 O
   O13        1.0     0.246997      0.293205      0.724752     Biso  1.000000 O
   O14        1.0     0.249325      0.003037      0.224201     Biso  1.000000 O
   O15        1.0     0.253368      0.498229      0.278333     Biso  1.000000 O
   O16        1.0     0.253405      0.795309      0.772443     Biso  1.000000 O
   O17        1.0     0.294647      0.251086      0.263486     Biso  1.000000 O
   O18        1.0     0.295266      0.543734      0.730494     Biso  1.000000 O
   O19        1.0     0.296165      0.048166      0.767069     Biso  1.000000 O
   O20        1.0     0.296898      0.747873      0.236265     Biso  1.000000 O
   O21        1.0     0.372675      0.897753      0.491834     Biso  1.000000 O
   O22        1.0     0.379551      0.396988      0.991571     Biso  1.000000 O
   O23        1.0     0.415946      0.394690      0.491669     Biso  1.000000 O
   O24        1.0     0.422534      0.896029      0.991762     Biso  1.000000 O
   O25        1.0     0.497882      0.747964      0.726079     Biso  1.000000 O
   O26        1.0     0.498780      0.048188      0.274320     Biso  1.000000 O
   O27        1.0     0.500301      0.544156      0.241141     Biso  1.000000 O
   O28        1.0     0.500359      0.250522      0.757589     Biso  1.000000 O
   O29        1.0     0.541827      0.795763      0.281954     Biso  1.000000 O
   O30        1.0     0.542179      0.498089      0.767969     Biso  1.000000 O
   O31        1.0     0.546123      0.002815      0.716834     Biso  1.000000 O
   O32        1.0     0.548281      0.293545      0.231481     Biso  1.000000 O
   O33        1.0     0.642428      0.668050      1.007410     Biso  1.000000 O
   O34        1.0     0.644883      0.128373      1.007200     Biso  1.000000 O
   O35        1.0     0.647473      0.625544      0.508280     Biso  1.000000 O
   O36        1.0     0.653144      0.170333      0.506971     Biso  1.000000 O
   O37        1.0     0.745988      0.791143      0.722462     Biso  1.000000 O
   O38        1.0     0.747841      0.502840      0.227682     Biso  1.000000 O
   O39        1.0     0.751604      0.299269      0.773828     Biso  1.000000 O
   O40        1.0     0.752003     -0.002074      0.274117     Biso  1.000000 O
   O41        1.0     0.794087      0.748678      0.268921     Biso  1.000000 O
   O42        1.0     0.794447      0.547204      0.762347     Biso  1.000000 O
   O43        1.0     0.794831      0.249766      0.231792     Biso  1.000000 O
   O44        1.0     0.795132      0.046987      0.735238     Biso  1.000000 O
   O45        1.0     0.871941      0.397606      0.491862     Biso  1.000000 O
   O46        1.0     0.879700      0.889889      0.991845     Biso  1.000000 O
   O47        1.0     0.914521      0.895857      0.491953     Biso  1.000000 O
   O48        1.0     0.919709      0.402438      0.991538     Biso  1.000000 O
