#======================================================================

# CRYSTAL DATA

#----------------------------------------------------------------------

data_VESTA_phase_1


_chemical_name_common                  ''
_cell_length_a                         10.51610
_cell_length_b                         10.52260
_cell_length_c                         7.77504
_cell_angle_alpha                      90
_cell_angle_beta                       90
_cell_angle_gamma                      90
_space_group_name_H-M_alt              'P 1'
_space_group_IT_number                 1

loop_
_space_group_symop_operation_xyz
   'x, y, z'

loop_
   _atom_site_label
   _atom_site_occupancy
   _atom_site_fract_x
   _atom_site_fract_y
   _atom_site_fract_z
   _atom_site_adp_type
   _atom_site_B_iso_or_equiv
   _atom_site_type_symbol
   W1         1.0     0.143285      0.899160      0.225118     Biso  1.000000 W
   W2         1.0     0.144124      0.390086      0.719024     Biso  1.000000 W
   W3         1.0     0.155957      0.900640      0.717261     Biso  1.000000 W
   W4         1.0     0.155991      0.390714      0.226960     Biso  1.000000 W
   W5         1.0     0.390430      0.641490      0.773470     Biso  1.000000 W
   W6         1.0     0.393504      0.653019      0.282668     Biso  1.000000 W
   W7         1.0     0.401022      0.140546      0.281575     Biso  1.000000 W
   W8         1.0     0.406737      0.153492      0.773430     Biso  1.000000 W
   W9         1.0     0.637559      0.398689      0.224810     Biso  1.000000 W
   W10        1.0     0.643063      0.885057      0.719413     Biso  1.000000 W
   W11        1.0     0.649827      0.406906      0.717787     Biso  1.000000 W
   W12        1.0     0.655159      0.891461      0.227400     Biso  1.000000 W
   W13        1.0     0.884162      0.146105      0.773150     Biso  1.000000 W
   W14        1.0     0.893367      0.157782      0.282457     Biso  1.000000 W
   W15        1.0     0.895818      0.635321      0.281462     Biso  1.000000 W
   W16        1.0     0.905829      0.648277      0.773427     Biso  1.000000 W
   O1         1.0    -0.002818      0.292767      0.723969     Biso  1.000000 O
   O2         1.0    -0.001230      0.002052      0.229127     Biso  1.000000 O
   O3         1.0     0.003172      0.497004      0.273429     Biso  1.000000 O
   O4         1.0     0.002759      0.795039      0.773891     Biso  1.000000 O
   O5         1.0     0.047440      0.250364      0.263699     Biso  1.000000 O
   O6         1.0     0.048056      0.543294      0.731086     Biso  1.000000 O
   O7         1.0     0.048951      0.047248      0.767691     Biso  1.000000 O
   O8         1.0     0.049681      0.747630      0.236456     Biso  1.000000 O
   O9         1.0     0.125123      0.897654      0.492233     Biso  1.000000 O
   O10        1.0     0.131968      0.396407      0.991970     Biso  1.000000 O
   O11        1.0     0.168202      0.394107      0.492068     Biso  1.000000 O
   O12        1.0     0.174761      0.895929      0.992161     Biso  1.000000 O
   O13        1.0     0.249776      0.747721      0.726668     Biso  1.000000 O
   O14        1.0     0.250670      0.047270      0.274543     Biso  1.000000 O
   O15        1.0     0.252184      0.543717      0.241336     Biso  1.000000 O
   O16        1.0     0.252242      0.249799      0.758203     Biso  1.000000 O
   O17        1.0     0.293526      0.795566      0.282183     Biso  1.000000 O
   O18        1.0     0.293877      0.497605      0.768591     Biso  1.000000 O
   O19        1.0     0.297804      0.002335      0.717415     Biso  1.000000 O
   O20        1.0     0.299952      0.292864      0.231669     Biso  1.000000 O
   O21        1.0     0.393683      0.667730      1.007820     Biso  1.000000 O
   O22        1.0     0.396127      0.127533      1.007610     Biso  1.000000 O
   O23        1.0     0.398706      0.625183      0.508693     Biso  1.000000 O
   O24        1.0     0.404351      0.169534      0.507382     Biso  1.000000 O
   O25        1.0     0.496784      0.790942      0.723048     Biso  1.000000 O
   O26        1.0     0.498630      0.502361      0.227867     Biso  1.000000 O
   O27        1.0     0.502376      0.298594      0.774456     Biso  1.000000 O
   O28        1.0     0.502774     -0.002558      0.274340     Biso  1.000000 O
   O29        1.0     0.544671      0.748436      0.269139     Biso  1.000000 O
   O30        1.0     0.545029      0.546768      0.762965     Biso  1.000000 O
   O31        1.0     0.545412      0.249043      0.231980     Biso  1.000000 O
   O32        1.0     0.545712      0.046069      0.735834     Biso  1.000000 O
   O33        1.0     0.622181      0.397025      0.492261     Biso  1.000000 O
   O34        1.0     0.629905      0.889783      0.992244     Biso  1.000000 O
   O35        1.0     0.664573      0.895756      0.492352     Biso  1.000000 O
   O36        1.0     0.669738      0.401862      0.991937     Biso  1.000000 O
   O37        1.0     0.745391      0.251382      0.732633     Biso  1.000000 O
   O38        1.0     0.747066      0.542970      0.277876     Biso  1.000000 O
   O39        1.0     0.749625      0.746152      0.752808     Biso  1.000000 O
   O40        1.0     0.749674      0.046608      0.236786     Biso  1.000000 O
   O41        1.0     0.790352      0.297929      0.277886     Biso  1.000000 O
   O42        1.0     0.790653     -0.002432      0.770807     Biso  1.000000 O
   O43        1.0     0.794875      0.501822      0.716205     Biso  1.000000 O
   O44        1.0     0.796390      0.789457      0.236830     Biso  1.000000 O
   O45        1.0     0.889239      0.625888      1.007660     Biso  1.000000 O
   O46        1.0     0.891318      0.129526      0.508715     Biso  1.000000 O
   O47        1.0     0.894475      0.169042      1.008060     Biso  1.000000 O
   O48        1.0     0.904957      0.663377      0.507490     Biso  1.000000 O
