#======================================================================

# CRYSTAL DATA

#----------------------------------------------------------------------

data_VESTA_phase_1


_chemical_name_common                  ''
_cell_length_a                         10.49870
_cell_length_b                         10.52020
_cell_length_c                         7.77504
_cell_angle_alpha                      90
_cell_angle_beta                       90
_cell_angle_gamma                      90
_space_group_name_H-M_alt              'P 1'
_space_group_IT_number                 1

loop_
_space_group_symop_operation_xyz
   'x, y, z'

loop_
   _atom_site_label
   _atom_site_occupancy
   _atom_site_fract_x
   _atom_site_fract_y
   _atom_site_fract_z
   _atom_site_adp_type
   _atom_site_B_iso_or_equiv
   _atom_site_type_symbol
   W1         1.0     0.140888      0.641632      0.773470     Biso  1.000000 W
   W2         1.0     0.143967      0.653164      0.282668     Biso  1.000000 W
   W3         1.0     0.151497      0.140577      0.281575     Biso  1.000000 W
   W4         1.0     0.157222      0.153526      0.773430     Biso  1.000000 W
   W5         1.0     0.388427      0.398778      0.224810     Biso  1.000000 W
   W6         1.0     0.393941      0.885254      0.719413     Biso  1.000000 W
   W7         1.0     0.400715      0.406997      0.717787     Biso  1.000000 W
   W8         1.0     0.406056      0.891660      0.227400     Biso  1.000000 W
   W9         1.0     0.635440      0.146137      0.773150     Biso  1.000000 W
   W10        1.0     0.644660      0.157817      0.282457     Biso  1.000000 W
   W11        1.0     0.647115      0.635462      0.281462     Biso  1.000000 W
   W12        1.0     0.657142      0.648421      0.773427     Biso  1.000000 W
   W13        1.0     0.884788      0.893870      0.225930     Biso  1.000000 W
   W14        1.0     0.893808      0.384914      0.719830     Biso  1.000000 W
   W15        1.0     0.896802      0.905835      0.719223     Biso  1.000000 W
   W16        1.0     0.906600      0.395816      0.227988     Biso  1.000000 W
   O1         1.0    -0.002868      0.748239      0.733301     Biso  1.000000 O
   O2         1.0    -0.001350      0.045405      0.277246     Biso  1.000000 O
   O3         1.0     0.001206      0.543905      0.237851     Biso  1.000000 O
   O4         1.0     0.001133      0.248274      0.752228     Biso  1.000000 O
   O5         1.0     0.043823      0.795743      0.282183     Biso  1.000000 O
   O6         1.0     0.044175      0.497715      0.768591     Biso  1.000000 O
   O7         1.0     0.048108      0.002447      0.717415     Biso  1.000000 O
   O8         1.0     0.050260      0.292929      0.231669     Biso  1.000000 O
   O9         1.0     0.144146      0.667879      1.007820     Biso  1.000000 O
   O10        1.0     0.146594      0.127561      1.007610     Biso  1.000000 O
   O11        1.0     0.149177      0.625322      0.508693     Biso  1.000000 O
   O12        1.0     0.154832      0.169571      0.507382     Biso  1.000000 O
   O13        1.0     0.247419      0.791117      0.723048     Biso  1.000000 O
   O14        1.0     0.249268      0.502472      0.227867     Biso  1.000000 O
   O15        1.0     0.253019      0.298660      0.774456     Biso  1.000000 O
   O16        1.0     0.253418     -0.002447      0.274340     Biso  1.000000 O
   O17        1.0     0.295385      0.748602      0.269139     Biso  1.000000 O
   O18        1.0     0.295744      0.546889      0.762965     Biso  1.000000 O
   O19        1.0     0.296127      0.249098      0.231980     Biso  1.000000 O
   O20        1.0     0.296427      0.046079      0.735834     Biso  1.000000 O
   O21        1.0     0.373023      0.397113      0.492261     Biso  1.000000 O
   O22        1.0     0.380761      0.889981      0.992244     Biso  1.000000 O
   O23        1.0     0.415486      0.895956      0.492352     Biso  1.000000 O
   O24        1.0     0.420659      0.401952      0.991937     Biso  1.000000 O
   O25        1.0     0.496438      0.251438      0.732633     Biso  1.000000 O
   O26        1.0     0.498116      0.543091      0.277876     Biso  1.000000 O
   O27        1.0     0.500679      0.746317      0.752808     Biso  1.000000 O
   O28        1.0     0.500728      0.046618      0.236786     Biso  1.000000 O
   O29        1.0     0.541473      0.297995      0.277886     Biso  1.000000 O
   O30        1.0     0.541776     -0.002321      0.770807     Biso  1.000000 O
   O31        1.0     0.546004      0.501934      0.716205     Biso  1.000000 O
   O32        1.0     0.547522      0.789632      0.236830     Biso  1.000000 O
   O33        1.0     0.640524      0.626028      1.007660     Biso  1.000000 O
   O34        1.0     0.642607      0.129555      0.508715     Biso  1.000000 O
   O35        1.0     0.645769      0.169080      1.008060     Biso  1.000000 O
   O36        1.0     0.656269      0.663524      0.507490     Biso  1.000000 O
   O37        1.0     0.745824      0.293075      0.722598     Biso  1.000000 O
   O38        1.0     0.746684      0.001658      0.233871     Biso  1.000000 O
   O39        1.0     0.750606      0.795143      0.774712     Biso  1.000000 O
   O40        1.0     0.751470      0.496373      0.268299     Biso  1.000000 O
   O41        1.0     0.792407      0.049426      0.756604     Biso  1.000000 O
   O42        1.0     0.793091      0.745388      0.229930     Biso  1.000000 O
   O43        1.0     0.794326      0.250845      0.273008     Biso  1.000000 O
   O44        1.0     0.795531      0.542161      0.742660     Biso  1.000000 O
   O45        1.0     0.873607      0.890207      0.492927     Biso  1.000000 O
   O46        1.0     0.882452      0.387351      0.992592     Biso  1.000000 O
   O47        1.0     0.911636      0.401591      0.492651     Biso  1.000000 O
   O48        1.0     0.915182      0.902113      0.992504     Biso  1.000000 O
