#======================================================================

# CRYSTAL DATA

#----------------------------------------------------------------------

data_VESTA_phase_1


_chemical_name_common                  ''
_cell_length_a                         10.53540
_cell_length_b                         10.53840
_cell_length_c                         7.77597
_cell_angle_alpha                      90
_cell_angle_beta                       90
_cell_angle_gamma                      90
_space_group_name_H-M_alt              'P 1'
_space_group_IT_number                 1

loop_
_space_group_symop_operation_xyz
   'x, y, z'

loop_
   _atom_site_label
   _atom_site_occupancy
   _atom_site_fract_x
   _atom_site_fract_y
   _atom_site_fract_z
   _atom_site_adp_type
   _atom_site_B_iso_or_equiv
   _atom_site_type_symbol
   W1         1.0     0.140517      0.400602      0.224783     Biso  1.000000 W
   W2         1.0     0.146011      0.886240      0.719328     Biso  1.000000 W
   W3         1.0     0.152762      0.408806      0.717702     Biso  1.000000 W
   W4         1.0     0.158084      0.892634      0.227373     Biso  1.000000 W
   W5         1.0     0.386668      0.148396      0.773058     Biso  1.000000 W
   W6         1.0     0.395856      0.160056      0.282423     Biso  1.000000 W
   W7         1.0     0.398302      0.636878      0.281429     Biso  1.000000 W
   W8         1.0     0.408294      0.649814      0.773335     Biso  1.000000 W
   W9         1.0     0.635147      0.894841      0.225903     Biso  1.000000 W
   W10        1.0     0.644135      0.386761      0.719745     Biso  1.000000 W
   W11        1.0     0.647119      0.906785      0.719137     Biso  1.000000 W
   W12        1.0     0.656882      0.397645      0.227961     Biso  1.000000 W
   W13        1.0     0.881919      0.645271      0.772691     Biso  1.000000 W
   W14        1.0     0.894031      0.137507      0.280858     Biso  1.000000 W
   W15        1.0     0.895164      0.657890      0.281931     Biso  1.000000 W
   W16        1.0     0.906246      0.150001      0.773071     Biso  1.000000 W
   O1         1.0    -0.002778      0.791325      0.723662     Biso  1.000000 O
   O2         1.0    -0.001960      0.503057      0.234559     Biso  1.000000 O
   O3         1.0     0.002153      0.298900      0.773863     Biso  1.000000 O
   O4         1.0     0.002953     -0.002049      0.267356     Biso  1.000000 O
   O5         1.0     0.047799      0.749823      0.269107     Biso  1.000000 O
   O6         1.0     0.048156      0.548458      0.762875     Biso  1.000000 O
   O7         1.0     0.048538      0.251179      0.231953     Biso  1.000000 O
   O8         1.0     0.048838      0.048510      0.735747     Biso  1.000000 O
   O9         1.0     0.125167      0.398940      0.492202     Biso  1.000000 O
   O10        1.0     0.132877      0.890958      0.992185     Biso  1.000000 O
   O11        1.0     0.167481      0.896923      0.492294     Biso  1.000000 O
   O12        1.0     0.172636      0.403770      0.991878     Biso  1.000000 O
   O13        1.0     0.248151      0.253515      0.732546     Biso  1.000000 O
   O14        1.0     0.249823      0.544666      0.277843     Biso  1.000000 O
   O15        1.0     0.252378      0.747542      0.752718     Biso  1.000000 O
   O16        1.0     0.252426      0.049048      0.236757     Biso  1.000000 O
   O17        1.0     0.293029      0.299992      0.277853     Biso  1.000000 O
   O18        1.0     0.293330     -0.000668      0.770716     Biso  1.000000 O
   O19        1.0     0.297544      0.503579      0.716120     Biso  1.000000 O
   O20        1.0     0.299057      0.790783      0.236802     Biso  1.000000 O
   O21        1.0     0.391735      0.627460      1.007600     Biso  1.000000 O
   O22        1.0     0.393810      0.131842      0.508655     Biso  1.000000 O
   O23        1.0     0.396962      0.171299      1.008000     Biso  1.000000 O
   O24        1.0     0.407424      0.664892      0.507430     Biso  1.000000 O
   O25        1.0     0.496668      0.295080      0.722512     Biso  1.000000 O
   O26        1.0     0.497524      0.003304      0.233844     Biso  1.000000 O
   O27        1.0     0.501433      0.796284      0.774620     Biso  1.000000 O
   O28        1.0     0.502293      0.498028      0.268267     Biso  1.000000 O
   O29        1.0     0.543088      0.051851      0.756514     Biso  1.000000 O
   O30        1.0     0.543770      0.746615      0.229903     Biso  1.000000 O
   O31        1.0     0.545000      0.252923      0.272976     Biso  1.000000 O
   O32        1.0     0.546201      0.543738      0.742572     Biso  1.000000 O
   O33        1.0     0.624005      0.891185      0.492869     Biso  1.000000 O
   O34        1.0     0.632819      0.389194      0.992534     Biso  1.000000 O
   O35        1.0     0.661901      0.403409      0.492593     Biso  1.000000 O
   O36        1.0     0.665435      0.903070      0.992445     Biso  1.000000 O
   O37        1.0     0.744240      0.749812      0.739847     Biso  1.000000 O
   O38        1.0     0.746373      0.045966      0.279915     Biso  1.000000 O
   O39        1.0     0.749754      0.248778      0.746164     Biso  1.000000 O
   O40        1.0     0.749957      0.545545      0.234338     Biso  1.000000 O
   O41        1.0     0.789839      0.795745      0.271577     Biso  1.000000 O
   O42        1.0     0.790474      0.497958      0.770293     Biso  1.000000 O
   O43        1.0     0.794124      0.001871      0.717292     Biso  1.000000 O
   O44        1.0     0.795833      0.293052      0.243679     Biso  1.000000 O
   O45        1.0     0.884688      0.132374      1.007490     Biso  1.000000 O
   O46        1.0     0.887340      0.631533      0.508573     Biso  1.000000 O
   O47        1.0     0.898044      0.663739      1.008120     Biso  1.000000 O
   O48        1.0     0.908090      0.162394      0.507298     Biso  1.000000 O
