#======================================================================

# CRYSTAL DATA

#----------------------------------------------------------------------

data_VESTA_phase_1


_chemical_name_common                  ''
_cell_length_a                         10.53570
_cell_length_b                         10.53840
_cell_length_c                         7.77156
_cell_angle_alpha                      90
_cell_angle_beta                       90
_cell_angle_gamma                      90
_space_group_name_H-M_alt              'P 1'
_space_group_IT_number                 1

loop_
_space_group_symop_operation_xyz
   'x, y, z'

loop_
   _atom_site_label
   _atom_site_occupancy
   _atom_site_fract_x
   _atom_site_fract_y
   _atom_site_fract_z
   _atom_site_adp_type
   _atom_site_B_iso_or_equiv
   _atom_site_type_symbol
   W1         1.0     0.138512      0.148396      0.772929     Biso  1.000000 W
   W2         1.0     0.147700      0.160056      0.282016     Biso  1.000000 W
   W3         1.0     0.150146      0.636878      0.281021     Biso  1.000000 W
   W4         1.0     0.160138      0.649814      0.773206     Biso  1.000000 W
   W5         1.0     0.386984      0.894841      0.225464     Biso  1.000000 W
   W6         1.0     0.395972      0.386761      0.719586     Biso  1.000000 W
   W7         1.0     0.398956      0.906785      0.718978     Biso  1.000000 W
   W8         1.0     0.408719      0.397645      0.227523     Biso  1.000000 W
   W9         1.0     0.633748      0.645271      0.772562     Biso  1.000000 W
   W10        1.0     0.645860      0.137507      0.280450     Biso  1.000000 W
   W11        1.0     0.646993      0.657890      0.281523     Biso  1.000000 W
   W12        1.0     0.658075      0.150001      0.772942     Biso  1.000000 W
   W13        1.0     0.882868      0.396011      0.226005     Biso  1.000000 W
   W14        1.0     0.894743      0.880807      0.719249     Biso  1.000000 W
   W15        1.0     0.894987      0.409393      0.719293     Biso  1.000000 W
   W16        1.0     0.908582      0.895206      0.227935     Biso  1.000000 W
   O1         1.0    -0.002645      0.253105      0.740028     Biso  1.000000 O
   O2         1.0    -0.001434      0.542464      0.279753     Biso  1.000000 O
   O3         1.0     0.001771      0.744614      0.744830     Biso  1.000000 O
   O4         1.0     0.002137      0.049600      0.234723     Biso  1.000000 O
   O5         1.0     0.044877      0.299992      0.277444     Biso  1.000000 O
   O6         1.0     0.045178     -0.000668      0.770586     Biso  1.000000 O
   O7         1.0     0.049391      0.503579      0.715959     Biso  1.000000 O
   O8         1.0     0.050904      0.790783      0.236369     Biso  1.000000 O
   O9         1.0     0.143579      0.627460      1.007320     Biso  1.000000 O
   O10        1.0     0.145655      0.131842      0.508376     Biso  1.000000 O
   O11        1.0     0.148806      0.171299      1.007720     Biso  1.000000 O
   O12        1.0     0.159268      0.664892      0.507150     Biso  1.000000 O
   O13        1.0     0.248509      0.295080      0.722355     Biso  1.000000 O
   O14        1.0     0.249365      0.003304      0.233409     Biso  1.000000 O
   O15        1.0     0.253274      0.796284      0.774492     Biso  1.000000 O
   O16        1.0     0.254134      0.498028      0.267852     Biso  1.000000 O
   O17        1.0     0.294928      0.051851      0.756376     Biso  1.000000 O
   O18        1.0     0.295610      0.746615      0.229466     Biso  1.000000 O
   O19        1.0     0.296840      0.252923      0.272563     Biso  1.000000 O
   O20        1.0     0.298041      0.543738      0.742426     Biso  1.000000 O
   O21        1.0     0.375842      0.891185      0.492581     Biso  1.000000 O
   O22        1.0     0.384656      0.389194      0.992246     Biso  1.000000 O
   O23        1.0     0.413737      0.403409      0.492305     Biso  1.000000 O
   O24        1.0     0.417271      0.903070      0.992157     Biso  1.000000 O
   O25        1.0     0.496074      0.749812      0.739699     Biso  1.000000 O
   O26        1.0     0.498206      0.045966      0.279507     Biso  1.000000 O
   O27        1.0     0.501588      0.248778      0.746020     Biso  1.000000 O
   O28        1.0     0.501790      0.545545      0.233904     Biso  1.000000 O
   O29        1.0     0.541671      0.795745      0.271164     Biso  1.000000 O
   O30        1.0     0.542306      0.497958      0.770163     Biso  1.000000 O
   O31        1.0     0.545956      0.001871      0.717131     Biso  1.000000 O
   O32        1.0     0.547665      0.293052      0.243250     Biso  1.000000 O
   O33        1.0     0.636517      0.132374      1.007210     Biso  1.000000 O
   O34        1.0     0.639169      0.631533      0.508294     Biso  1.000000 O
   O35        1.0     0.649873      0.663739      1.007840     Biso  1.000000 O
   O36        1.0     0.659919      0.162394      0.507018     Biso  1.000000 O
   O37        1.0     0.746063      0.501998      0.240847     Biso  1.000000 O
   O38        1.0     0.746270      0.790385      0.724207     Biso  1.000000 O
   O39        1.0     0.750550      0.297143      0.773234     Biso  1.000000 O
   O40        1.0     0.751754     -0.003304      0.259986     Biso  1.000000 O
   O41        1.0     0.791257      0.547152      0.748627     Biso  1.000000 O
   O42        1.0     0.791917      0.248463      0.227779     Biso  1.000000 O
   O43        1.0     0.794599      0.749902      0.274172     Biso  1.000000 O
   O44        1.0     0.795218      0.044052      0.749595     Biso  1.000000 O
   O45        1.0     0.876479      0.388286      0.492648     Biso  1.000000 O
   O46        1.0     0.888304      0.881009      0.992438     Biso  1.000000 O
   O47        1.0     0.907868      0.902791      0.492061     Biso  1.000000 O
   O48        1.0     0.909997      0.408964      0.992260     Biso  1.000000 O
