#======================================================================

# CRYSTAL DATA

#----------------------------------------------------------------------

data_VESTA_phase_1


_chemical_name_common                  ''
_cell_length_a                         10.52900
_cell_length_b                         10.54930
_cell_length_c                         7.78235
_cell_angle_alpha                      90
_cell_angle_beta                       90
_cell_angle_gamma                      90
_space_group_name_H-M_alt              'P 1'
_space_group_IT_number                 1

loop_
_space_group_symop_operation_xyz
   'x, y, z'

loop_
   _atom_site_label
   _atom_site_occupancy
   _atom_site_fract_x
   _atom_site_fract_y
   _atom_site_fract_z
   _atom_site_adp_type
   _atom_site_B_iso_or_equiv
   _atom_site_type_symbol
   W1         1.0     0.141092      0.889634      0.716139     Biso  1.000000 W
   W2         1.0     0.144637      0.405520      0.227045     Biso  1.000000 W
   W3         1.0     0.153677      0.885290      0.225337     Biso  1.000000 W
   W4         1.0     0.156722      0.401900      0.718473     Biso  1.000000 W
   W5         1.0     0.387851      0.152944      0.281198     Biso  1.000000 W
   W6         1.0     0.394140      0.140946      0.773770     Biso  1.000000 W
   W7         1.0     0.399427      0.655044      0.772694     Biso  1.000000 W
   W8         1.0     0.407166      0.642327      0.281313     Biso  1.000000 W
   W9         1.0     0.635731      0.397727      0.717317     Biso  1.000000 W
   W10        1.0     0.643457      0.905315      0.227355     Biso  1.000000 W
   W11        1.0     0.648769      0.387672      0.227058     Biso  1.000000 W
   W12        1.0     0.655574      0.896332      0.718641     Biso  1.000000 W
   W13        1.0     0.883616      0.649449      0.281127     Biso  1.000000 W
   W14        1.0     0.894188      0.636801      0.773655     Biso  1.000000 W
   W15        1.0     0.894426      0.161832      0.772288     Biso  1.000000 W
   W16        1.0     0.906472      0.148963      0.280517     Biso  1.000000 W
   O1         1.0    -0.002345      0.502878      0.228305     Biso  1.000000 O
   O2         1.0    -0.002156      0.790184      0.729806     Biso  1.000000 O
   O3         1.0     0.002365      0.298566      0.762034     Biso  1.000000 O
   O4         1.0     0.002974     -0.002312      0.280389     Biso  1.000000 O
   O5         1.0     0.046783      0.543353      0.761573     Biso  1.000000 O
   O6         1.0     0.047916      0.251794      0.242469     Biso  1.000000 O
   O7         1.0     0.047919      0.745162      0.268557     Biso  1.000000 O
   O8         1.0     0.048490      0.048186      0.722990     Biso  1.000000 O
   O9         1.0     0.126037      0.895040      0.991475     Biso  1.000000 O
   O10        1.0     0.130598      0.402676      0.491926     Biso  1.000000 O
   O11        1.0     0.168398      0.396370      0.991906     Biso  1.000000 O
   O12        1.0     0.171854      0.887249      0.491255     Biso  1.000000 O
   O13        1.0     0.248849      0.046916      0.242811     Biso  1.000000 O
   O14        1.0     0.249645      0.747469      0.768824     Biso  1.000000 O
   O15        1.0     0.251576      0.251375      0.726625     Biso  1.000000 O
   O16        1.0     0.252511      0.544845      0.262468     Biso  1.000000 O
   O17        1.0     0.292562     -0.003454      0.766716     Biso  1.000000 O
   O18        1.0     0.293060      0.297514      0.280498     Biso  1.000000 O
   O19        1.0     0.297442      0.789126      0.223502     Biso  1.000000 O
   O20        1.0     0.298535      0.502439      0.726140     Biso  1.000000 O
   O21        1.0     0.390951      0.168556      1.008420     Biso  1.000000 O
   O22        1.0     0.392592      0.666644      0.507285     Biso  1.000000 O
   O23        1.0     0.399420      0.130037      0.507553     Biso  1.000000 O
   O24        1.0     0.406458      0.626792      1.006740     Biso  1.000000 O
   O25        1.0     0.496988      0.002330      0.228144     Biso  1.000000 O
   O26        1.0     0.497193      0.294023      0.728348     Biso  1.000000 O
   O27        1.0     0.501965      0.794801      0.762400     Biso  1.000000 O
   O28        1.0     0.502416      0.497475      0.282234     Biso  1.000000 O
   O29        1.0     0.543431      0.249226      0.261000     Biso  1.000000 O
   O30        1.0     0.543889      0.546544      0.721087     Biso  1.000000 O
   O31        1.0     0.544052      0.047687      0.766118     Biso  1.000000 O
   O32        1.0     0.545566      0.749530      0.248119     Biso  1.000000 O
   O33        1.0     0.626946      0.404502      0.992375     Biso  1.000000 O
   O34        1.0     0.629412      0.903530      0.492155     Biso  1.000000 O
   O35        1.0     0.663902      0.388549      0.491850     Biso  1.000000 O
   O36        1.0     0.664164      0.889949      0.992174     Biso  1.000000 O
   O37        1.0     0.746001      0.543388      0.252716     Biso  1.000000 O
   O38        1.0     0.746339      0.253838      0.769901     Biso  1.000000 O
   O39        1.0     0.749607      0.748275      0.722994     Biso  1.000000 O
   O40        1.0     0.749995      0.050855      0.257512     Biso  1.000000 O
   O41        1.0     0.790197      0.498033      0.758496     Biso  1.000000 O
   O42        1.0     0.790384      0.795183      0.281104     Biso  1.000000 O
   O43        1.0     0.794893      0.294682      0.225838     Biso  1.000000 O
   O44        1.0     0.795102      0.003819      0.731355     Biso  1.000000 O
   O45        1.0     0.882984      0.661828      1.008530     Biso  1.000000 O
   O46        1.0     0.888062      0.168493      0.507109     Biso  1.000000 O
   O47        1.0     0.903224      0.631547      0.507738     Biso  1.000000 O
   O48        1.0     0.905430      0.135911      1.006900     Biso  1.000000 O
