#======================================================================

# CRYSTAL DATA

#----------------------------------------------------------------------

data_VESTA_phase_1


_chemical_name_common                  ''
_cell_length_a                         10.51740
_cell_length_b                         10.55160
_cell_length_c                         7.77156
_cell_angle_alpha                      90
_cell_angle_beta                       90
_cell_angle_gamma                      90
_space_group_name_H-M_alt              'P 1'
_space_group_IT_number                 1

loop_
_space_group_symop_operation_xyz
   'x, y, z'

loop_
   _atom_site_label
   _atom_site_occupancy
   _atom_site_fract_x
   _atom_site_fract_y
   _atom_site_fract_z
   _atom_site_adp_type
   _atom_site_B_iso_or_equiv
   _atom_site_type_symbol
   W1         1.0     0.138717      0.894973      0.225464     Biso  1.000000 W
   W2         1.0     0.147721      0.387531      0.719586     Biso  1.000000 W
   W3         1.0     0.150710      0.906902      0.718978     Biso  1.000000 W
   W4         1.0     0.160490      0.398400      0.227523     Biso  1.000000 W
   W5         1.0     0.385913      0.645716      0.772562     Biso  1.000000 W
   W6         1.0     0.398045      0.138589      0.280450     Biso  1.000000 W
   W7         1.0     0.399181      0.658319      0.281523     Biso  1.000000 W
   W8         1.0     0.410282      0.151067      0.772942     Biso  1.000000 W
   W9         1.0     0.635467      0.396769      0.226005     Biso  1.000000 W
   W10        1.0     0.647363      0.880956      0.719249     Biso  1.000000 W
   W11        1.0     0.647608      0.410134      0.719293     Biso  1.000000 W
   W12        1.0     0.661226      0.895337      0.227935     Biso  1.000000 W
   W13        1.0     0.883948      0.148692      0.768664     Biso  1.000000 W
   W14        1.0     0.894805      0.631540      0.283888     Biso  1.000000 W
   W15        1.0     0.897730      0.162807      0.283888     Biso  1.000000 W
   W16        1.0     0.908240      0.644557      0.768664     Biso  1.000000 W
   O1         1.0    -0.002090      0.294621      0.720126     Biso  1.000000 O
   O2         1.0    -0.002148      0.002280      0.242858     Biso  1.000000 O
   O3         1.0     0.001996      0.793615      0.770670     Biso  1.000000 O
   O4         1.0     0.002818      0.497068      0.265369     Biso  1.000000 O
   O5         1.0     0.046500      0.053040      0.756376     Biso  1.000000 O
   O6         1.0     0.047183      0.746933      0.229466     Biso  1.000000 O
   O7         1.0     0.048416      0.253861      0.272563     Biso  1.000000 O
   O8         1.0     0.049619      0.544310      0.742426     Biso  1.000000 O
   O9         1.0     0.127556      0.891321      0.492581     Biso  1.000000 O
   O10        1.0     0.136385      0.389960      0.992246     Biso  1.000000 O
   O11        1.0     0.165517      0.404158      0.492305     Biso  1.000000 O
   O12        1.0     0.169057      0.903192      0.992157     Biso  1.000000 O
   O13        1.0     0.247997      0.750126      0.739699     Biso  1.000000 O
   O14        1.0     0.250134      0.047162      0.279507     Biso  1.000000 O
   O15        1.0     0.253521      0.249720      0.746020     Biso  1.000000 O
   O16        1.0     0.253724      0.546116      0.233904     Biso  1.000000 O
   O17        1.0     0.293675      0.796002      0.271164     Biso  1.000000 O
   O18        1.0     0.294310      0.498588      0.770163     Biso  1.000000 O
   O19        1.0     0.297966      0.002496      0.717131     Biso  1.000000 O
   O20        1.0     0.299679      0.293939      0.243250     Biso  1.000000 O
   O21        1.0     0.388686      0.133462      1.007210     Biso  1.000000 O
   O22        1.0     0.391343      0.631995      0.508294     Biso  1.000000 O
   O23        1.0     0.402065      0.664161      1.007840     Biso  1.000000 O
   O24        1.0     0.412128      0.163445      0.507018     Biso  1.000000 O
   O25        1.0     0.498423      0.502622      0.240847     Biso  1.000000 O
   O26        1.0     0.498631      0.790648      0.724207     Biso  1.000000 O
   O27        1.0     0.502918      0.298025      0.773234     Biso  1.000000 O
   O28        1.0     0.504124     -0.002672      0.259986     Biso  1.000000 O
   O29        1.0     0.543696      0.547721      0.748627     Biso  1.000000 O
   O30        1.0     0.544358      0.249406      0.227779     Biso  1.000000 O
   O31        1.0     0.547044      0.750216      0.274172     Biso  1.000000 O
   O32        1.0     0.547664      0.045251      0.749595     Biso  1.000000 O
   O33        1.0     0.629067      0.389053      0.492648     Biso  1.000000 O
   O34        1.0     0.640912      0.881158      0.992438     Biso  1.000000 O
   O35        1.0     0.660510      0.902913      0.492061     Biso  1.000000 O
   O36        1.0     0.662643      0.409705      0.992260     Biso  1.000000 O
   O37        1.0     0.747505      0.253632      0.747662     Biso  1.000000 O
   O38        1.0     0.748255      0.540839      0.282072     Biso  1.000000 O
   O39        1.0     0.752118      0.742009      0.737082     Biso  1.000000 O
   O40        1.0     0.752804      0.051343      0.233121     Biso  1.000000 O
   O41        1.0     0.792415     -0.003927      0.766848     Biso  1.000000 O
   O42        1.0     0.792550      0.298917      0.262887     Biso  1.000000 O
   O43        1.0     0.796405      0.500087      0.717897     Biso  1.000000 O
   O44        1.0     0.797155      0.787294      0.252306     Biso  1.000000 O
   O45        1.0     0.882679      0.139601      0.507366     Biso  1.000000 O
   O46        1.0     0.885314      0.629923      1.007370     Biso  1.000000 O
   O47        1.0     0.907062      0.163918      1.007370     Biso  1.000000 O
   O48        1.0     0.909704      0.654240      0.507366     Biso  1.000000 O
