#======================================================================

# CRYSTAL DATA

#----------------------------------------------------------------------

data_VESTA_phase_1


_chemical_name_common                  ''
_cell_length_a                         10.53970
_cell_length_b                         10.53650
_cell_length_c                         7.77076
_cell_angle_alpha                      90
_cell_angle_beta                       90
_cell_angle_gamma                      90
_space_group_name_H-M_alt              'P 1'
_space_group_IT_number                 1

loop_
_space_group_symop_operation_xyz
   'x, y, z'

loop_
   _atom_site_label
   _atom_site_occupancy
   _atom_site_fract_x
   _atom_site_fract_y
   _atom_site_fract_z
   _atom_site_adp_type
   _atom_site_B_iso_or_equiv
   _atom_site_type_symbol
   W1         1.0     0.137623      0.646642      0.772539     Biso  1.000000 W
   W2         1.0     0.149730      0.138788      0.280376     Biso  1.000000 W
   W3         1.0     0.150863      0.659263      0.281450     Biso  1.000000 W
   W4         1.0     0.161940      0.151284      0.772919     Biso  1.000000 W
   W5         1.0     0.386648      0.397338      0.225925     Biso  1.000000 W
   W6         1.0     0.398519      0.882219      0.719220     Biso  1.000000 W
   W7         1.0     0.398763      0.410722      0.719264     Biso  1.000000 W
   W8         1.0     0.412352      0.896621      0.227856     Biso  1.000000 W
   W9         1.0     0.634603      0.148905      0.768640     Biso  1.000000 W
   W10        1.0     0.645436      0.632445      0.283814     Biso  1.000000 W
   W11        1.0     0.648355      0.163041      0.283814     Biso  1.000000 W
   W12        1.0     0.658842      0.645481      0.768640     Biso  1.000000 W
   W13        1.0     0.880877      0.890527      0.231226     Biso  1.000000 W
   W14        1.0     0.892476      0.384532      0.716051     Biso  1.000000 W
   W15        1.0     0.894283      0.903564      0.716051     Biso  1.000000 W
   W16        1.0     0.906229      0.398668      0.231226     Biso  1.000000 W
   O1         1.0    -0.002854      0.749707      0.743654     Biso  1.000000 O
   O2         1.0    -0.000858      0.047313      0.280715     Biso  1.000000 O
   O3         1.0     0.002756      0.249467      0.741524     Biso  1.000000 O
   O4         1.0     0.002647      0.546266      0.233434     Biso  1.000000 O
   O5         1.0     0.045581      0.797143      0.271089     Biso  1.000000 O
   O6         1.0     0.046215      0.499302      0.770139     Biso  1.000000 O
   O7         1.0     0.049863      0.003216      0.717102     Biso  1.000000 O
   O8         1.0     0.051572      0.294360      0.243172     Biso  1.000000 O
   O9         1.0     0.140391      0.133653      1.007160     Biso  1.000000 O
   O10        1.0     0.143042      0.632901      0.508243     Biso  1.000000 O
   O11        1.0     0.153741      0.665113      1.007790     Biso  1.000000 O
   O12        1.0     0.163783      0.163679      0.506968     Biso  1.000000 O
   O13        1.0     0.249895      0.503343      0.240769     Biso  1.000000 O
   O14        1.0     0.250102      0.791781      0.724178     Biso  1.000000 O
   O15        1.0     0.254380      0.298452      0.773211     Biso  1.000000 O
   O16        1.0     0.255584     -0.001960      0.259910     Biso  1.000000 O
   O17        1.0     0.295072      0.548506      0.748601     Biso  1.000000 O
   O18        1.0     0.295732      0.249764      0.227700     Biso  1.000000 O
   O19        1.0     0.298412      0.751291      0.274097     Biso  1.000000 O
   O20        1.0     0.299031      0.045316      0.749569     Biso  1.000000 O
   O21        1.0     0.380262      0.389611      0.492596     Biso  1.000000 O
   O22        1.0     0.392082      0.882421      0.992386     Biso  1.000000 O
   O23        1.0     0.411638      0.904207      0.492009     Biso  1.000000 O
   O24        1.0     0.413767      0.410293      0.992208     Biso  1.000000 O
   O25        1.0     0.498449      0.253996      0.747636     Biso  1.000000 O
   O26        1.0     0.499197      0.541614      0.281998     Biso  1.000000 O
   O27        1.0     0.503052      0.743073      0.737055     Biso  1.000000 O
   O28        1.0     0.503736      0.051417      0.233042     Biso  1.000000 O
   O29        1.0     0.543263     -0.003216      0.766824     Biso  1.000000 O
   O30        1.0     0.543398      0.299345      0.262811     Biso  1.000000 O
   O31        1.0     0.547245      0.500804      0.717868     Biso  1.000000 O
   O32        1.0     0.547993      0.788422      0.252229     Biso  1.000000 O
   O33        1.0     0.633336      0.139801      0.507315     Biso  1.000000 O
   O34        1.0     0.635965      0.630826      1.007320     Biso  1.000000 O
   O35        1.0     0.657667      0.164153      1.007320     Biso  1.000000 O
   O36        1.0     0.660304      0.655178      0.507315     Biso  1.000000 O
   O37        1.0     0.745264      0.001351      0.252229     Biso  1.000000 O
   O38        1.0     0.746236      0.293698      0.717868     Biso  1.000000 O
   O39        1.0     0.749628      0.791824      0.766824     Biso  1.000000 O
   O40        1.0     0.750408      0.496188      0.262811     Biso  1.000000 O
   O41        1.0     0.790092      0.744185      0.233042     Biso  1.000000 O
   O42        1.0     0.790424      0.051385      0.737055     Biso  1.000000 O
   O43        1.0     0.794595      0.253876      0.281998     Biso  1.000000 O
   O44        1.0     0.795011      0.540438      0.747636     Biso  1.000000 O
   O45        1.0     0.879423      0.880831      0.492551     Biso  1.000000 O
   O46        1.0     0.883165      0.383421      0.992551     Biso  1.000000 O
   O47        1.0     0.903754      0.905182      0.992551     Biso  1.000000 O
   O48        1.0     0.907504      0.407771      0.492551     Biso  1.000000 O
