#======================================================================

# CRYSTAL DATA

#----------------------------------------------------------------------

data_VESTA_phase_1


_chemical_name_common                  ''
_cell_length_a                         10.53500
_cell_length_b                         10.51770
_cell_length_c                         7.76706
_cell_angle_alpha                      90
_cell_angle_beta                       90
_cell_angle_gamma                      90
_space_group_name_H-M_alt              'P 1'
_space_group_IT_number                 1

loop_
_space_group_symop_operation_xyz
   'x, y, z'

loop_
   _atom_site_label
   _atom_site_occupancy
   _atom_site_fract_x
   _atom_site_fract_y
   _atom_site_fract_z
   _atom_site_adp_type
   _atom_site_B_iso_or_equiv
   _atom_site_type_symbol
   W1         1.0     0.136815      0.398049      0.226033     Biso  1.000000 W
   W2         1.0     0.148691      0.883798      0.719563     Biso  1.000000 W
   W3         1.0     0.148935      0.411457      0.719607     Biso  1.000000 W
   W4         1.0     0.162530      0.898226      0.227965     Biso  1.000000 W
   W5         1.0     0.384881      0.149172      0.769006     Biso  1.000000 W
   W6         1.0     0.395719      0.633577      0.283950     Biso  1.000000 W
   W7         1.0     0.398639      0.163333      0.283950     Biso  1.000000 W
   W8         1.0     0.409131      0.646637      0.769006     Biso  1.000000 W
   W9         1.0     0.631266      0.892122      0.231336     Biso  1.000000 W
   W10        1.0     0.642870      0.385220      0.716393     Biso  1.000000 W
   W11        1.0     0.644678      0.905181      0.716393     Biso  1.000000 W
   W12        1.0     0.656629      0.399382      0.231336     Biso  1.000000 W
   W13        1.0     0.883506      0.644902      0.769006     Biso  1.000000 W
   W14        1.0     0.895457      0.139103      0.283950     Biso  1.000000 W
   W15        1.0     0.897266      0.659064      0.283950     Biso  1.000000 W
   W16        1.0     0.908870      0.152164      0.769006     Biso  1.000000 W
   O1         1.0    -0.002613      0.503561      0.246617     Biso  1.000000 O
   O2         1.0    -0.002297      0.791576      0.721367     Biso  1.000000 O
   O3         1.0     0.002091      0.298877      0.770384     Biso  1.000000 O
   O4         1.0     0.002810     -0.001682      0.261485     Biso  1.000000 O
   O5         1.0     0.045198      0.549488      0.748958     Biso  1.000000 O
   O6         1.0     0.045858      0.250211      0.227808     Biso  1.000000 O
   O7         1.0     0.048540      0.752637      0.274228     Biso  1.000000 O
   O8         1.0     0.049159      0.045397      0.749927     Biso  1.000000 O
   O9         1.0     0.130426      0.390308      0.492830     Biso  1.000000 O
   O10        1.0     0.142251      0.884001      0.992620     Biso  1.000000 O
   O11        1.0     0.161816      0.905826      0.492244     Biso  1.000000 O
   O12        1.0     0.163946      0.411027      0.992442     Biso  1.000000 O
   O13        1.0     0.248666      0.254450      0.747993     Biso  1.000000 O
   O14        1.0     0.249414      0.542584      0.282133     Biso  1.000000 O
   O15        1.0     0.253271      0.744403      0.737406     Biso  1.000000 O
   O16        1.0     0.253955      0.051509      0.233153     Biso  1.000000 O
   O17        1.0     0.293500     -0.002327      0.767189     Biso  1.000000 O
   O18        1.0     0.293635      0.299881      0.262936     Biso  1.000000 O
   O19        1.0     0.297484      0.501701      0.718210     Biso  1.000000 O
   O20        1.0     0.298232      0.789834      0.252350     Biso  1.000000 O
   O21        1.0     0.383613      0.140052      0.507557     Biso  1.000000 O
   O22        1.0     0.386244      0.631956      1.007560     Biso  1.000000 O
   O23        1.0     0.407955      0.164446      1.007560     Biso  1.000000 O
   O24        1.0     0.410594      0.656351      0.507557     Biso  1.000000 O
   O25        1.0     0.495592      0.002248      0.252350     Biso  1.000000 O
   O26        1.0     0.496565      0.294223      0.718210     Biso  1.000000 O
   O27        1.0     0.499957      0.793242      0.767189     Biso  1.000000 O
   O28        1.0     0.500738      0.497077      0.262936     Biso  1.000000 O
   O29        1.0     0.540440      0.745517      0.233153     Biso  1.000000 O
   O30        1.0     0.540772      0.051477      0.737406     Biso  1.000000 O
   O31        1.0     0.544946      0.254330      0.282133     Biso  1.000000 O
   O32        1.0     0.545362      0.541406      0.747993     Biso  1.000000 O
   O33        1.0     0.629811      0.882408      0.492785     Biso  1.000000 O
   O34        1.0     0.633555      0.384107      0.992786     Biso  1.000000 O
   O35        1.0     0.654153      0.906803      0.992786     Biso  1.000000 O
   O36        1.0     0.657904      0.408501      0.492785     Biso  1.000000 O
   O37        1.0     0.744732      0.749553      0.747993     Biso  1.000000 O
   O38        1.0     0.746593      0.047481      0.282133     Biso  1.000000 O
   O39        1.0     0.750021      0.546611      0.233153     Biso  1.000000 O
   O40        1.0     0.750442      0.249301      0.737406     Biso  1.000000 O
   O41        1.0     0.792261      0.795613      0.262936     Biso  1.000000 O
   O42        1.0     0.792682      0.498302      0.767189     Biso  1.000000 O
   O43        1.0     0.796666      0.002327      0.718210     Biso  1.000000 O
   O44        1.0     0.797971      0.295361      0.252350     Biso  1.000000 O
   O45        1.0     0.882239      0.635783      0.507557     Biso  1.000000 O
   O46        1.0     0.885982      0.137483      1.007560     Biso  1.000000 O
   O47        1.0     0.906580      0.660177      1.007560     Biso  1.000000 O
   O48        1.0     0.910332      0.161877      0.507557     Biso  1.000000 O
