#======================================================================

# CRYSTAL DATA

#----------------------------------------------------------------------

data_VESTA_phase_1


_chemical_name_common                  ''
_cell_length_a                         10.51950
_cell_length_b                         10.51770
_cell_length_c                         7.76439
_cell_angle_alpha                      90
_cell_angle_beta                       90
_cell_angle_gamma                      90
_space_group_name_H-M_alt              'P 1'
_space_group_IT_number                 1

loop_
_space_group_symop_operation_xyz
   'x, y, z'

loop_
   _atom_site_label
   _atom_site_occupancy
   _atom_site_fract_x
   _atom_site_fract_y
   _atom_site_fract_z
   _atom_site_adp_type
   _atom_site_B_iso_or_equiv
   _atom_site_type_symbol
   W1         1.0     0.136416      0.149172      0.768927     Biso  1.000000 W
   W2         1.0     0.147270      0.633577      0.283704     Biso  1.000000 W
   W3         1.0     0.150195      0.163333      0.283704     Biso  1.000000 W
   W4         1.0     0.160702      0.646637      0.768927     Biso  1.000000 W
   W5         1.0     0.383164      0.892122      0.231072     Biso  1.000000 W
   W6         1.0     0.394786      0.385220      0.716295     Biso  1.000000 W
   W7         1.0     0.396597      0.905181      0.716295     Biso  1.000000 W
   W8         1.0     0.408566      0.399382      0.231072     Biso  1.000000 W
   W9         1.0     0.635777      0.644902      0.768927     Biso  1.000000 W
   W10        1.0     0.647746      0.139103      0.283704     Biso  1.000000 W
   W11        1.0     0.649557      0.659064      0.283704     Biso  1.000000 W
   W12        1.0     0.661179      0.152164      0.768927     Biso  1.000000 W
   W13        1.0     0.883640      0.397647      0.231072     Biso  1.000000 W
   W14        1.0     0.894156      0.880952      0.716295     Biso  1.000000 W
   W15        1.0     0.897073      0.410708      0.716295     Biso  1.000000 W
   W16        1.0     0.907927      0.895114      0.231072     Biso  1.000000 W
   O1         1.0    -0.002649      0.254450      0.747906     Biso  1.000000 O
   O2         1.0    -0.001899      0.542584      0.281886     Biso  1.000000 O
   O3         1.0     0.001964      0.744403      0.737316     Biso  1.000000 O
   O4         1.0     0.002649      0.051509      0.232890     Biso  1.000000 O
   O5         1.0     0.044900     -0.002327      0.767109     Biso  1.000000 O
   O6         1.0     0.045036      0.299881      0.262683     Biso  1.000000 O
   O7         1.0     0.048890      0.501701      0.718113     Biso  1.000000 O
   O8         1.0     0.049640      0.789834      0.252093     Biso  1.000000 O
   O9         1.0     0.135147      0.140052      0.507388     Biso  1.000000 O
   O10        1.0     0.137781      0.631956      1.007390     Biso  1.000000 O
   O11        1.0     0.159525      0.164446      1.007390     Biso  1.000000 O
   O12        1.0     0.162167      0.656351      0.507388     Biso  1.000000 O
   O13        1.0     0.247290      0.002248      0.252093     Biso  1.000000 O
   O14        1.0     0.248265      0.294223      0.718113     Biso  1.000000 O
   O15        1.0     0.251662      0.793242      0.767109     Biso  1.000000 O
   O16        1.0     0.252444      0.497077      0.262683     Biso  1.000000 O
   O17        1.0     0.292205      0.745517      0.232890     Biso  1.000000 O
   O18        1.0     0.292537      0.051477      0.737316     Biso  1.000000 O
   O19        1.0     0.296717      0.254330      0.281886     Biso  1.000000 O
   O20        1.0     0.297134      0.541406      0.747906     Biso  1.000000 O
   O21        1.0     0.381708      0.882408      0.492611     Biso  1.000000 O
   O22        1.0     0.385457      0.384107      0.992611     Biso  1.000000 O
   O23        1.0     0.406086      0.906803      0.992611     Biso  1.000000 O
   O24        1.0     0.409842      0.408501      0.492611     Biso  1.000000 O
   O25        1.0     0.496798      0.749553      0.747906     Biso  1.000000 O
   O26        1.0     0.498662      0.047481      0.281886     Biso  1.000000 O
   O27        1.0     0.502095      0.546611      0.232890     Biso  1.000000 O
   O28        1.0     0.502517      0.249301      0.737316     Biso  1.000000 O
   O29        1.0     0.544397      0.795613      0.262683     Biso  1.000000 O
   O30        1.0     0.544819      0.498302      0.767109     Biso  1.000000 O
   O31        1.0     0.548809      0.002327      0.718113     Biso  1.000000 O
   O32        1.0     0.550115      0.295361      0.252093     Biso  1.000000 O
   O33        1.0     0.634508      0.635783      0.507388     Biso  1.000000 O
   O34        1.0     0.638256      0.137483      1.007390     Biso  1.000000 O
   O35        1.0     0.658885      0.660177      1.007390     Biso  1.000000 O
   O36        1.0     0.662643      0.161877      0.507388     Biso  1.000000 O
   O37        1.0     0.747209      0.502878      0.252093     Biso  1.000000 O
   O38        1.0     0.747634      0.789954      0.718113     Biso  1.000000 O
   O39        1.0     0.752138      0.298767      0.767109     Biso  1.000000 O
   O40        1.0     0.752371     -0.002296      0.262683     Biso  1.000000 O
   O41        1.0     0.791899      0.547208      0.737316     Biso  1.000000 O
   O42        1.0     0.792680      0.251043      0.232890     Biso  1.000000 O
   O43        1.0     0.796078      0.750062      0.281886     Biso  1.000000 O
   O44        1.0     0.797609      0.046932      0.747906     Biso  1.000000 O
   O45        1.0     0.882184      0.387935      0.492611     Biso  1.000000 O
   O46        1.0     0.884818      0.879839      0.992611     Biso  1.000000 O
   O47        1.0     0.906562      0.412328      0.992611     Biso  1.000000 O
   O48        1.0     0.909204      0.904233      0.492611     Biso  1.000000 O
