#======================================================================

# CRYSTAL DATA

#----------------------------------------------------------------------

data_VESTA_phase_1


_chemical_name_common                  ''
_cell_length_a                         10.54170
_cell_length_b                         10.52380
_cell_length_c                         7.76710
_cell_angle_alpha                      90
_cell_angle_beta                       90
_cell_angle_gamma                      90
_space_group_name_H-M_alt              'P 1'
_space_group_IT_number                 1

loop_
_space_group_symop_operation_xyz
   'x, y, z'

loop_
   _atom_site_label
   _atom_site_occupancy
   _atom_site_fract_x
   _atom_site_fract_y
   _atom_site_fract_z
   _atom_site_adp_type
   _atom_site_B_iso_or_equiv
   _atom_site_type_symbol
   W1         1.0     0.135660      0.891604      0.230991     Biso  1.000000 W
   W2         1.0     0.147257      0.384996      0.716045     Biso  1.000000 W
   W3         1.0     0.149064      0.904656      0.716045     Biso  1.000000 W
   W4         1.0     0.161007      0.399150      0.230991     Biso  1.000000 W
   W5         1.0     0.387740      0.644528      0.768659     Biso  1.000000 W
   W6         1.0     0.399684      0.139022      0.283605     Biso  1.000000 W
   W7         1.0     0.401491      0.658681      0.283605     Biso  1.000000 W
   W8         1.0     0.413088      0.152075      0.768659     Biso  1.000000 W
   W9         1.0     0.635081      0.397416      0.230991     Biso  1.000000 W
   W10        1.0     0.645574      0.880440      0.716045     Biso  1.000000 W
   W11        1.0     0.648485      0.410469      0.716045     Biso  1.000000 W
   W12        1.0     0.659317      0.894594      0.230991     Biso  1.000000 W
   W13        1.0     0.882148      0.147013      0.772072     Biso  1.000000 W
   W14        1.0     0.895319      0.161035      0.279870     Biso  1.000000 W
   W15        1.0     0.895514      0.632622      0.281552     Biso  1.000000 W
   W16        1.0     0.907724      0.645849      0.773092     Biso  1.000000 W
   O1         1.0    -0.002106      0.002286      0.247094     Biso  1.000000 O
   O2         1.0    -0.001630      0.293169      0.719114     Biso  1.000000 O
   O3         1.0     0.001846      0.792935      0.769678     Biso  1.000000 O
   O4         1.0     0.002607      0.496003      0.262026     Biso  1.000000 O
   O5         1.0     0.044892      0.745084      0.232809     Biso  1.000000 O
   O6         1.0     0.045223      0.051447      0.737059     Biso  1.000000 O
   O7         1.0     0.049394      0.254183      0.281788     Biso  1.000000 O
   O8         1.0     0.049810      0.541091      0.747645     Biso  1.000000 O
   O9         1.0     0.134206      0.881895      0.492440     Biso  1.000000 O
   O10        1.0     0.137947      0.383884      0.992440     Biso  1.000000 O
   O11        1.0     0.158533      0.906276      0.992440     Biso  1.000000 O
   O12        1.0     0.162282      0.408264      0.492440     Biso  1.000000 O
   O13        1.0     0.249054      0.749117      0.747645     Biso  1.000000 O
   O14        1.0     0.250914      0.047453      0.281788     Biso  1.000000 O
   O15        1.0     0.254340      0.546293      0.232809     Biso  1.000000 O
   O16        1.0     0.254761      0.249156      0.737059     Biso  1.000000 O
   O17        1.0     0.296553      0.795151      0.262591     Biso  1.000000 O
   O18        1.0     0.296973      0.498012      0.766842     Biso  1.000000 O
   O19        1.0     0.300955      0.002035      0.717863     Biso  1.000000 O
   O20        1.0     0.302259      0.295189      0.252005     Biso  1.000000 O
   O21        1.0     0.386473      0.635414      0.507211     Biso  1.000000 O
   O22        1.0     0.390214      0.137403      1.007210     Biso  1.000000 O
   O23        1.0     0.410799      0.659793      1.007210     Biso  1.000000 O
   O24        1.0     0.414549      0.161783      0.507211     Biso  1.000000 O
   O25        1.0     0.498938      0.502586      0.252005     Biso  1.000000 O
   O26        1.0     0.499361      0.789495      0.717863     Biso  1.000000 O
   O27        1.0     0.503855      0.298594      0.766842     Biso  1.000000 O
   O28        1.0     0.504088     -0.002585      0.262591     Biso  1.000000 O
   O29        1.0     0.543533      0.546890      0.737059     Biso  1.000000 O
   O30        1.0     0.544313      0.250897      0.232809     Biso  1.000000 O
   O31        1.0     0.547704      0.749626      0.281788     Biso  1.000000 O
   O32        1.0     0.549231      0.046905      0.747645     Biso  1.000000 O
   O33        1.0     0.633628      0.387709      0.492440     Biso  1.000000 O
   O34        1.0     0.636257      0.879328      0.992440     Biso  1.000000 O
   O35        1.0     0.657955      0.412089      0.992440     Biso  1.000000 O
   O36        1.0     0.660591      0.903708      0.492440     Biso  1.000000 O
   O37        1.0     0.745909      0.254303      0.747645     Biso  1.000000 O
   O38        1.0     0.746657      0.542269      0.281788     Biso  1.000000 O
   O39        1.0     0.750512      0.743971      0.737059     Biso  1.000000 O
   O40        1.0     0.751196      0.051479      0.232809     Biso  1.000000 O
   O41        1.0     0.790715     -0.002616      0.766842     Biso  1.000000 O
   O42        1.0     0.790850      0.299707      0.262591     Biso  1.000000 O
   O43        1.0     0.794697      0.501409      0.717863     Biso  1.000000 O
   O44        1.0     0.795445      0.789375      0.252005     Biso  1.000000 O
   O45        1.0     0.883960      0.630701      1.007560     Biso  1.000000 O
   O46        1.0     0.885311      0.137155      0.507200     Biso  1.000000 O
   O47        1.0     0.902481      0.164494      1.006800     Biso  1.000000 O
   O48        1.0     0.910784      0.656709      0.508022     Biso  1.000000 O
