#======================================================================

# CRYSTAL DATA

#----------------------------------------------------------------------

data_VESTA_phase_1


_chemical_name_common                  ''
_cell_length_a                         10.52750
_cell_length_b                         10.52380
_cell_length_c                         7.77256
_cell_angle_alpha                      90
_cell_angle_beta                       90
_cell_angle_gamma                      90
_space_group_name_H-M_alt              'P 1'
_space_group_IT_number                 1

loop_
_space_group_symop_operation_xyz
   'x, y, z'

loop_
   _atom_site_label
   _atom_site_occupancy
   _atom_site_fract_x
   _atom_site_fract_y
   _atom_site_fract_z
   _atom_site_adp_type
   _atom_site_B_iso_or_equiv
   _atom_site_type_symbol
   W1         1.0     0.138872      0.644528      0.768821     Biso  1.000000 W
   W2         1.0     0.150832      0.139022      0.284107     Biso  1.000000 W
   W3         1.0     0.152642      0.658681      0.284107     Biso  1.000000 W
   W4         1.0     0.164254      0.152075      0.768821     Biso  1.000000 W
   W5         1.0     0.386546      0.397416      0.231531     Biso  1.000000 W
   W6         1.0     0.397053      0.880440      0.716245     Biso  1.000000 W
   W7         1.0     0.399968      0.410469      0.716245     Biso  1.000000 W
   W8         1.0     0.410814      0.894594      0.231531     Biso  1.000000 W
   W9         1.0     0.633945      0.147013      0.772232     Biso  1.000000 W
   W10        1.0     0.647134      0.161035      0.280375     Biso  1.000000 W
   W11        1.0     0.647329      0.632622      0.282056     Biso  1.000000 W
   W12        1.0     0.659556      0.645849      0.773251     Biso  1.000000 W
   W13        1.0     0.884784      0.893854      0.227370     Biso  1.000000 W
   W14        1.0     0.894943      0.383381      0.719696     Biso  1.000000 W
   W15        1.0     0.897365      0.905374      0.719737     Biso  1.000000 W
   W16        1.0     0.908433      0.395678      0.226540     Biso  1.000000 W
   O1         1.0    -0.002094      0.748325      0.744934     Biso  1.000000 O
   O2         1.0    -0.000079      0.045775      0.278915     Biso  1.000000 O
   O3         1.0     0.002482      0.545570      0.232183     Biso  1.000000 O
   O4         1.0     0.002857      0.247207      0.742981     Biso  1.000000 O
   O5         1.0     0.047562      0.795151      0.263109     Biso  1.000000 O
   O6         1.0     0.047984      0.498012      0.767005     Biso  1.000000 O
   O7         1.0     0.051971      0.002035      0.718061     Biso  1.000000 O
   O8         1.0     0.053276      0.295189      0.252530     Biso  1.000000 O
   O9         1.0     0.137604      0.635414      0.507557     Biso  1.000000 O
   O10        1.0     0.141350      0.137403      1.007560     Biso  1.000000 O
   O11        1.0     0.161963      0.659793      1.007560     Biso  1.000000 O
   O12        1.0     0.165718      0.161783      0.507557     Biso  1.000000 O
   O13        1.0     0.250219      0.502586      0.252530     Biso  1.000000 O
   O14        1.0     0.250643      0.789495      0.718061     Biso  1.000000 O
   O15        1.0     0.255144      0.298594      0.767005     Biso  1.000000 O
   O16        1.0     0.255377     -0.002585      0.263109     Biso  1.000000 O
   O17        1.0     0.294874      0.546890      0.737243     Biso  1.000000 O
   O18        1.0     0.295656      0.250897      0.233347     Biso  1.000000 O
   O19        1.0     0.299051      0.749626      0.282292     Biso  1.000000 O
   O20        1.0     0.300580      0.046905      0.747822     Biso  1.000000 O
   O21        1.0     0.385091      0.387709      0.492796     Biso  1.000000 O
   O22        1.0     0.387723      0.879328      0.992796     Biso  1.000000 O
   O23        1.0     0.409451      0.412089      0.992796     Biso  1.000000 O
   O24        1.0     0.412090      0.903708      0.492796     Biso  1.000000 O
   O25        1.0     0.497523      0.254303      0.747822     Biso  1.000000 O
   O26        1.0     0.498272      0.542269      0.282292     Biso  1.000000 O
   O27        1.0     0.502132      0.743971      0.737243     Biso  1.000000 O
   O28        1.0     0.502817      0.051479      0.233347     Biso  1.000000 O
   O29        1.0     0.542389     -0.002616      0.767005     Biso  1.000000 O
   O30        1.0     0.542524      0.299707      0.263109     Biso  1.000000 O
   O31        1.0     0.546377      0.501409      0.718061     Biso  1.000000 O
   O32        1.0     0.547125      0.789375      0.252530     Biso  1.000000 O
   O33        1.0     0.635759      0.630701      1.007910     Biso  1.000000 O
   O34        1.0     0.637112      0.137155      0.507546     Biso  1.000000 O
   O35        1.0     0.654305      0.164494      1.007150     Biso  1.000000 O
   O36        1.0     0.662619      0.656709      0.508367     Biso  1.000000 O
   O37        1.0     0.747666      0.002616      0.242715     Biso  1.000000 O
   O38        1.0     0.747646      0.292285      0.720562     Biso  1.000000 O
   O39        1.0     0.751211      0.793089      0.772674     Biso  1.000000 O
   O40        1.0     0.751955      0.495219      0.261979     Biso  1.000000 O
   O41        1.0     0.791653      0.746242      0.230071     Biso  1.000000 O
   O42        1.0     0.791764      0.048063      0.747360     Biso  1.000000 O
   O43        1.0     0.796737      0.251937      0.276336     Biso  1.000000 O
   O44        1.0     0.796934      0.540330      0.749896     Biso  1.000000 O
   O45        1.0     0.878701      0.887242      0.492620     Biso  1.000000 O
   O46        1.0     0.883253      0.384849      0.992094     Biso  1.000000 O
   O47        1.0     0.910931      0.902959      0.992592     Biso  1.000000 O
   O48        1.0     0.913064      0.403449      0.492753     Biso  1.000000 O
