#======================================================================

# CRYSTAL DATA

#----------------------------------------------------------------------

data_VESTA_phase_1


_chemical_name_common                  ''
_cell_length_a                         10.53270
_cell_length_b                         10.55190
_cell_length_c                         7.77256
_cell_angle_alpha                      90
_cell_angle_beta                       90
_cell_angle_gamma                      90
_space_group_name_H-M_alt              'P 1'
_space_group_IT_number                 1

loop_
_space_group_symop_operation_xyz
   'x, y, z'

loop_
   _atom_site_label
   _atom_site_occupancy
   _atom_site_fract_x
   _atom_site_fract_y
   _atom_site_fract_z
   _atom_site_adp_type
   _atom_site_B_iso_or_equiv
   _atom_site_type_symbol
   W1         1.0     0.136259      0.399023      0.231531     Biso  1.000000 W
   W2         1.0     0.146761      0.880759      0.716245     Biso  1.000000 W
   W3         1.0     0.149675      0.412041      0.716245     Biso  1.000000 W
   W4         1.0     0.160515      0.894875      0.231531     Biso  1.000000 W
   W5         1.0     0.383536      0.149288      0.772232     Biso  1.000000 W
   W6         1.0     0.396718      0.163272      0.280375     Biso  1.000000 W
   W7         1.0     0.396913      0.633601      0.282056     Biso  1.000000 W
   W8         1.0     0.409134      0.646793      0.773251     Biso  1.000000 W
   W9         1.0     0.634251      0.894137      0.227370     Biso  1.000000 W
   W10        1.0     0.644405      0.385024      0.719696     Biso  1.000000 W
   W11        1.0     0.646825      0.905626      0.719737     Biso  1.000000 W
   W12        1.0     0.657888      0.397289      0.226540     Biso  1.000000 W
   W13        1.0     0.882762      0.642703      0.772453     Biso  1.000000 W
   W14        1.0     0.894082      0.656125      0.280478     Biso  1.000000 W
   W15        1.0     0.895726      0.138537      0.281872     Biso  1.000000 W
   W16        1.0     0.906007      0.150302      0.772660     Biso  1.000000 W
   O1         1.0    -0.002885      0.503107      0.244367     Biso  1.000000 O
   O2         1.0    -0.002436      0.789069      0.717502     Biso  1.000000 O
   O3         1.0     0.002071      0.298205      0.769382     Biso  1.000000 O
   O4         1.0     0.002541     -0.002593      0.267406     Biso  1.000000 O
   O5         1.0     0.044633      0.548098      0.737243     Biso  1.000000 O
   O6         1.0     0.045414      0.252894      0.233347     Biso  1.000000 O
   O7         1.0     0.048807      0.750294      0.282292     Biso  1.000000 O
   O8         1.0     0.050336      0.049446      0.747822     Biso  1.000000 O
   O9         1.0     0.134805      0.389342      0.492796     Biso  1.000000 O
   O10        1.0     0.137436      0.879650      0.992796     Biso  1.000000 O
   O11        1.0     0.159152      0.413656      0.992796     Biso  1.000000 O
   O12        1.0     0.161791      0.903964      0.492796     Biso  1.000000 O
   O13        1.0     0.247182      0.256291      0.747822     Biso  1.000000 O
   O14        1.0     0.247930      0.543489      0.282292     Biso  1.000000 O
   O15        1.0     0.251789      0.744653      0.737243     Biso  1.000000 O
   O16        1.0     0.252472      0.054007      0.233347     Biso  1.000000 O
   O17        1.0     0.292025     -0.001276      0.767005     Biso  1.000000 O
   O18        1.0     0.292160      0.301574      0.263109     Biso  1.000000 O
   O19        1.0     0.296011      0.502738      0.718061     Biso  1.000000 O
   O20        1.0     0.296759      0.789937      0.252530     Biso  1.000000 O
   O21        1.0     0.385349      0.631686      1.007910     Biso  1.000000 O
   O22        1.0     0.386702      0.139455      0.507546     Biso  1.000000 O
   O23        1.0     0.403886      0.166722      1.007150     Biso  1.000000 O
   O24        1.0     0.412196      0.657624      0.508367     Biso  1.000000 O
   O25        1.0     0.497201      0.003942      0.242715     Biso  1.000000 O
   O26        1.0     0.497181      0.294172      0.720562     Biso  1.000000 O
   O27        1.0     0.500744      0.793640      0.772674     Biso  1.000000 O
   O28        1.0     0.501488      0.496564      0.261979     Biso  1.000000 O
   O29        1.0     0.541167      0.746919      0.230071     Biso  1.000000 O
   O30        1.0     0.541277      0.050600      0.747360     Biso  1.000000 O
   O31        1.0     0.546248      0.253932      0.276336     Biso  1.000000 O
   O32        1.0     0.546445      0.541555      0.749896     Biso  1.000000 O
   O33        1.0     0.628171      0.887542      0.492620     Biso  1.000000 O
   O34        1.0     0.632721      0.386489      0.992094     Biso  1.000000 O
   O35        1.0     0.660385      0.903218      0.992592     Biso  1.000000 O
   O36        1.0     0.662517      0.405040      0.492753     Biso  1.000000 O
   O37        1.0     0.745223      0.748205      0.742045     Biso  1.000000 O
   O38        1.0     0.747391      0.046645      0.275539     Biso  1.000000 O
   O39        1.0     0.749081      0.546060      0.231019     Biso  1.000000 O
   O40        1.0     0.749410      0.247270      0.748718     Biso  1.000000 O
   O41        1.0     0.789767      0.794504      0.268703     Biso  1.000000 O
   O42        1.0     0.790512      0.496118      0.771717     Biso  1.000000 O
   O43        1.0     0.794529      0.000494      0.721048     Biso  1.000000 O
   O44        1.0     0.796413      0.293803      0.240870     Biso  1.000000 O
   O45        1.0     0.886225      0.628330      0.506828     Biso  1.000000 O
   O46        1.0     0.891013      0.130569      1.007610     Biso  1.000000 O
   O47        1.0     0.899648      0.664536      1.007080     Biso  1.000000 O
   O48        1.0     0.902922      0.165009      0.508401     Biso  1.000000 O
