#======================================================================

# CRYSTAL DATA

#----------------------------------------------------------------------

data_VESTA_phase_1


_chemical_name_common                  ''
_cell_length_a                         10.51360
_cell_length_b                         10.55190
_cell_length_c                         7.77889
_cell_angle_alpha                      90
_cell_angle_beta                       90
_cell_angle_gamma                      90
_space_group_name_H-M_alt              'P 1'
_space_group_IT_number                 1

loop_
_space_group_symop_operation_xyz
   'x, y, z'

loop_
   _atom_site_label
   _atom_site_occupancy
   _atom_site_fract_x
   _atom_site_fract_y
   _atom_site_fract_z
   _atom_site_adp_type
   _atom_site_B_iso_or_equiv
   _atom_site_type_symbol
   W1         1.0     0.136603      0.149288      0.772418     Biso  1.000000 W
   W2         1.0     0.149809      0.163272      0.280961     Biso  1.000000 W
   W3         1.0     0.150004      0.633601      0.282640     Biso  1.000000 W
   W4         1.0     0.162248      0.646793      0.773436     Biso  1.000000 W
   W5         1.0     0.387774      0.894137      0.227999     Biso  1.000000 W
   W6         1.0     0.397948      0.385024      0.719924     Biso  1.000000 W
   W7         1.0     0.400372      0.905626      0.719965     Biso  1.000000 W
   W8         1.0     0.411455      0.397289      0.227169     Biso  1.000000 W
   W9         1.0     0.636739      0.642703      0.772639     Biso  1.000000 W
   W10        1.0     0.648079      0.656125      0.281063     Biso  1.000000 W
   W11        1.0     0.649726      0.138537      0.282457     Biso  1.000000 W
   W12        1.0     0.660026      0.150302      0.772845     Biso  1.000000 W
   W13        1.0     0.888057      0.398762      0.227516     Biso  1.000000 W
   W14        1.0     0.894777      0.881428      0.718050     Biso  1.000000 W
   W15        1.0     0.900409      0.407042      0.719689     Biso  1.000000 W
   W16        1.0     0.907778      0.891322      0.225393     Biso  1.000000 W
   O1         1.0    -0.000902      0.253467      0.742201     Biso  1.000000 O
   O2         1.0     0.000370      0.543141      0.277239     Biso  1.000000 O
   O3         1.0     0.002308      0.743679      0.747671     Biso  1.000000 O
   O4         1.0     0.002453      0.051444      0.233064     Biso  1.000000 O
   O5         1.0     0.044925     -0.001276      0.767195     Biso  1.000000 O
   O6         1.0     0.045061      0.301574      0.263708     Biso  1.000000 O
   O7         1.0     0.048918      0.502738      0.718290     Biso  1.000000 O
   O8         1.0     0.049668      0.789937      0.253138     Biso  1.000000 O
   O9         1.0     0.138419      0.631686      1.008310     Biso  1.000000 O
   O10        1.0     0.139774      0.139455      0.507946     Biso  1.000000 O
   O11        1.0     0.156990      0.166722      1.007550     Biso  1.000000 O
   O12        1.0     0.165315      0.657624      0.508767     Biso  1.000000 O
   O13        1.0     0.250475      0.003942      0.243331     Biso  1.000000 O
   O14        1.0     0.250455      0.294172      0.720790     Biso  1.000000 O
   O15        1.0     0.254025      0.793640      0.772859     Biso  1.000000 O
   O16        1.0     0.254770      0.496564      0.262579     Biso  1.000000 O
   O17        1.0     0.294521      0.746919      0.230697     Biso  1.000000 O
   O18        1.0     0.294631      0.050600      0.747566     Biso  1.000000 O
   O19        1.0     0.299611      0.253932      0.276924     Biso  1.000000 O
   O20        1.0     0.299809      0.541555      0.750100     Biso  1.000000 O
   O21        1.0     0.381684      0.887542      0.493032     Biso  1.000000 O
   O22        1.0     0.386241      0.386489      0.992507     Biso  1.000000 O
   O23        1.0     0.413956      0.903218      0.993005     Biso  1.000000 O
   O24        1.0     0.416092      0.405040      0.493166     Biso  1.000000 O
   O25        1.0     0.498949      0.748205      0.742255     Biso  1.000000 O
   O26        1.0     0.501120      0.046645      0.276129     Biso  1.000000 O
   O27        1.0     0.502813      0.546060      0.231645     Biso  1.000000 O
   O28        1.0     0.503144      0.247270      0.748922     Biso  1.000000 O
   O29        1.0     0.543574      0.794504      0.269298     Biso  1.000000 O
   O30        1.0     0.544320      0.496118      0.771903     Biso  1.000000 O
   O31        1.0     0.548345      0.000494      0.721275     Biso  1.000000 O
   O32        1.0     0.550232      0.293803      0.241488     Biso  1.000000 O
   O33        1.0     0.640208      0.628330      0.507230     Biso  1.000000 O
   O34        1.0     0.645005      0.130569      1.008010     Biso  1.000000 O
   O35        1.0     0.653655      0.664536      1.007480     Biso  1.000000 O
   O36        1.0     0.656935      0.165009      0.508801     Biso  1.000000 O
   O37        1.0     0.748410      0.502302      0.236825     Biso  1.000000 O
   O38        1.0     0.748884      0.788081      0.717174     Biso  1.000000 O
   O39        1.0     0.753408      0.295946      0.771945     Biso  1.000000 O
   O40        1.0     0.754118     -0.003942      0.272295     Biso  1.000000 O
   O41        1.0     0.793991      0.544560      0.753139     Biso  1.000000 O
   O42        1.0     0.794887      0.250166      0.234466     Biso  1.000000 O
   O43        1.0     0.797365      0.748057      0.276610     Biso  1.000000 O
   O44        1.0     0.798238      0.044767      0.738217     Biso  1.000000 O
   O45        1.0     0.877953      0.885697      0.991694     Biso  1.000000 O
   O46        1.0     0.878808      0.394865      0.492653     Biso  1.000000 O
   O47        1.0     0.915182      0.402401      0.992616     Biso  1.000000 O
   O48        1.0     0.919600      0.894748      0.492102     Biso  1.000000 O
