#======================================================================

# CRYSTAL DATA

#----------------------------------------------------------------------

data_VESTA_phase_1


_chemical_name_common                  ''
_cell_length_a                         10.52720
_cell_length_b                         10.56580
_cell_length_c                         7.77661
_cell_angle_alpha                      90
_cell_angle_beta                       90
_cell_angle_gamma                      90
_space_group_name_H-M_alt              'P 1'
_space_group_IT_number                 1

loop_
_space_group_symop_operation_xyz
   'x, y, z'

loop_
   _atom_site_label
   _atom_site_occupancy
   _atom_site_fract_x
   _atom_site_fract_y
   _atom_site_fract_z
   _atom_site_adp_type
   _atom_site_B_iso_or_equiv
   _atom_site_type_symbol
   W1         1.0     0.137193      0.894276      0.228065     Biso  1.000000 W
   W2         1.0     0.147353      0.385830      0.720135     Biso  1.000000 W
   W3         1.0     0.149775      0.905750      0.720175     Biso  1.000000 W
   W4         1.0     0.160843      0.398079      0.227235     Biso  1.000000 W
   W5         1.0     0.385835      0.643171      0.772864     Biso  1.000000 W
   W6         1.0     0.397160      0.656576      0.281145     Biso  1.000000 W
   W7         1.0     0.398805      0.139666      0.282539     Biso  1.000000 W
   W8         1.0     0.409091      0.151416      0.773071     Biso  1.000000 W
   W9         1.0     0.636826      0.399550      0.227583     Biso  1.000000 W
   W10        1.0     0.643538      0.881583      0.718260     Biso  1.000000 W
   W11        1.0     0.649163      0.407819      0.719900     Biso  1.000000 W
   W12        1.0     0.656522      0.891465      0.225459     Biso  1.000000 W
   W13        1.0     0.884915      0.145047      0.773526     Biso  1.000000 W
   W14        1.0     0.891860      0.158330      0.281753     Biso  1.000000 W
   W15        1.0     0.898398      0.636728      0.282210     Biso  1.000000 W
   W16        1.0     0.904064      0.648381      0.772842     Biso  1.000000 W
   O1         1.0    -0.003016      0.003468      0.237645     Biso  1.000000 O
   O2         1.0    -0.002490      0.293554      0.719068     Biso  1.000000 O
   O3         1.0     0.001563      0.793012      0.771682     Biso  1.000000 O
   O4         1.0     0.002181      0.496762      0.270840     Biso  1.000000 O
   O5         1.0     0.044060      0.747250      0.230765     Biso  1.000000 O
   O6         1.0     0.044171      0.051845      0.747785     Biso  1.000000 O
   O7         1.0     0.049145      0.254910      0.277005     Biso  1.000000 O
   O8         1.0     0.049342      0.542156      0.750319     Biso  1.000000 O
   O9         1.0     0.131111      0.887690      0.493177     Biso  1.000000 O
   O10        1.0     0.135662      0.387293      0.992651     Biso  1.000000 O
   O11        1.0     0.163341      0.903345      0.993149     Biso  1.000000 O
   O12        1.0     0.165474      0.405819      0.493310     Biso  1.000000 O
   O13        1.0     0.248224      0.748535      0.742472     Biso  1.000000 O
   O14        1.0     0.250392      0.047894      0.276209     Biso  1.000000 O
   O15        1.0     0.252083      0.546655      0.231712     Biso  1.000000 O
   O16        1.0     0.252413      0.248257      0.749141     Biso  1.000000 O
   O17        1.0     0.292791      0.794773      0.269377     Biso  1.000000 O
   O18        1.0     0.293536      0.496778      0.772129     Biso  1.000000 O
   O19        1.0     0.297555      0.001149      0.721486     Biso  1.000000 O
   O20        1.0     0.299440      0.294728      0.241559     Biso  1.000000 O
   O21        1.0     0.389299      0.628817      0.507378     Biso  1.000000 O
   O22        1.0     0.394090      0.131708      1.008160     Biso  1.000000 O
   O23        1.0     0.402729      0.664976      1.007630     Biso  1.000000 O
   O24        1.0     0.406005      0.166103      0.508950     Biso  1.000000 O
   O25        1.0     0.497361      0.502955      0.236894     Biso  1.000000 O
   O26        1.0     0.497834      0.788359      0.717384     Biso  1.000000 O
   O27        1.0     0.502353      0.296869      0.772171     Biso  1.000000 O
   O28        1.0     0.503061     -0.003281      0.272375     Biso  1.000000 O
   O29        1.0     0.542883      0.545157      0.753359     Biso  1.000000 O
   O30        1.0     0.543778      0.251149      0.234534     Biso  1.000000 O
   O31        1.0     0.546253      0.748387      0.276691     Biso  1.000000 O
   O32        1.0     0.547124      0.046018      0.738433     Biso  1.000000 O
   O33        1.0     0.626736      0.885847      0.991837     Biso  1.000000 O
   O34        1.0     0.627590      0.395658      0.492797     Biso  1.000000 O
   O35        1.0     0.663916      0.403185      0.992760     Biso  1.000000 O
   O36        1.0     0.668329      0.894886      0.492246     Biso  1.000000 O
   O37        1.0     0.746823      0.251625      0.736590     Biso  1.000000 O
   O38        1.0     0.748230      0.050126      0.232225     Biso  1.000000 O
   O39        1.0     0.748615      0.543392      0.271682     Biso  1.000000 O
   O40        1.0     0.748624      0.743042      0.758106     Biso  1.000000 O
   O41        1.0     0.790352     -0.004592      0.773325     Biso  1.000000 O
   O42        1.0     0.790543      0.298502      0.274905     Biso  1.000000 O
   O43        1.0     0.795692      0.788911      0.231728     Biso  1.000000 O
   O44        1.0     0.795811      0.500486      0.721735     Biso  1.000000 O
   O45        1.0     0.888598      0.129235      0.507377     Biso  1.000000 O
   O46        1.0     0.896744      0.170752      1.007890     Biso  1.000000 O
   O47        1.0     0.897069      0.624096      1.007450     Biso  1.000000 O
   O48        1.0     0.897857      0.664804      0.508344     Biso  1.000000 O
