#======================================================================

# CRYSTAL DATA

#----------------------------------------------------------------------

data_VESTA_phase_1


_chemical_name_common                  ''
_cell_length_a                         10.48850
_cell_length_b                         10.54200
_cell_length_c                         7.77993
_cell_angle_alpha                      90
_cell_angle_beta                       90
_cell_angle_gamma                      90
_space_group_name_H-M_alt              'P 1'
_space_group_IT_number                 1

loop_
_space_group_symop_operation_xyz
   'x, y, z'

loop_
   _atom_site_label
   _atom_site_occupancy
   _atom_site_fract_x
   _atom_site_fract_y
   _atom_site_fract_z
   _atom_site_adp_type
   _atom_site_B_iso_or_equiv
   _atom_site_type_symbol
   W1         1.0     0.138120      0.644621      0.772961     Biso  1.000000 W
   W2         1.0     0.149487      0.658055      0.281452     Biso  1.000000 W
   W3         1.0     0.151138      0.139980      0.282845     Biso  1.000000 W
   W4         1.0     0.161462      0.151757      0.773168     Biso  1.000000 W
   W5         1.0     0.390039      0.400450      0.227913     Biso  1.000000 W
   W6         1.0     0.396776      0.883570      0.718380     Biso  1.000000 W
   W7         1.0     0.402421      0.408738      0.720019     Biso  1.000000 W
   W8         1.0     0.409808      0.893474      0.225789     Biso  1.000000 W
   W9         1.0     0.639045      0.145374      0.773623     Biso  1.000000 W
   W10        1.0     0.646016      0.158686      0.282059     Biso  1.000000 W
   W11        1.0     0.652578      0.638163      0.282516     Biso  1.000000 W
   W12        1.0     0.658265      0.649842      0.772939     Biso  1.000000 W
   W13        1.0     0.891004      0.899773      0.227006     Biso  1.000000 W
   W14        1.0     0.892842      0.390189      0.716988     Biso  1.000000 W
   W15        1.0     0.903440      0.902683      0.718759     Biso  1.000000 W
   W16        1.0     0.905258      0.393605      0.224994     Biso  1.000000 W
   O1         1.0     0.000000      0.749410      0.736949     Biso  1.000000 O
   O2         1.0     0.002176      0.048002      0.276519     Biso  1.000000 O
   O3         1.0     0.001426      0.546588      0.233987     Biso  1.000000 O
   O4         1.0     0.001829      0.249225      0.757142     Biso  1.000000 O
   O5         1.0     0.044732      0.796564      0.269689     Biso  1.000000 O
   O6         1.0     0.045480      0.497897      0.772226     Biso  1.000000 O
   O7         1.0     0.049514      0.002278      0.721605     Biso  1.000000 O
   O8         1.0     0.051406      0.295392      0.241882     Biso  1.000000 O
   O9         1.0     0.141597      0.630234      0.507588     Biso  1.000000 O
   O10        1.0     0.146405      0.132005      1.008370     Biso  1.000000 O
   O11        1.0     0.155077      0.666474      1.007840     Biso  1.000000 O
   O12        1.0     0.158364      0.166477      0.509160     Biso  1.000000 O
   O13        1.0     0.250058      0.504088      0.237220     Biso  1.000000 O
   O14        1.0     0.250533      0.790135      0.717504     Biso  1.000000 O
   O15        1.0     0.255069      0.297538      0.772268     Biso  1.000000 O
   O16        1.0     0.255780     -0.002162      0.272686     Biso  1.000000 O
   O17        1.0     0.295748      0.546386      0.753464     Biso  1.000000 O
   O18        1.0     0.296646      0.251715      0.234861     Biso  1.000000 O
   O19        1.0     0.299131      0.750074      0.277000     Biso  1.000000 O
   O20        1.0     0.300006      0.046122      0.738544     Biso  1.000000 O
   O21        1.0     0.379912      0.887843      0.992054     Biso  1.000000 O
   O22        1.0     0.380768      0.396550      0.493013     Biso  1.000000 O
   O23        1.0     0.417229      0.404093      0.992976     Biso  1.000000 O
   O24        1.0     0.421658      0.896903      0.492463     Biso  1.000000 O
   O25        1.0     0.500443      0.252192      0.736703     Biso  1.000000 O
   O26        1.0     0.501855      0.050239      0.232553     Biso  1.000000 O
   O27        1.0     0.502241      0.544616      0.271993     Biso  1.000000 O
   O28        1.0     0.502251      0.744717      0.758209     Biso  1.000000 O
   O29        1.0     0.544133     -0.003475      0.773421     Biso  1.000000 O
   O30        1.0     0.544324      0.299174      0.275214     Biso  1.000000 O
   O31        1.0     0.549493      0.790688      0.232056     Biso  1.000000 O
   O32        1.0     0.549611      0.501614      0.721854     Biso  1.000000 O
   O33        1.0     0.642741      0.129526      0.507588     Biso  1.000000 O
   O34        1.0     0.650918      0.171137      1.008100     Biso  1.000000 O
   O35        1.0     0.651244      0.625503      1.007660     Biso  1.000000 O
   O36        1.0     0.652036      0.666302      0.508554     Biso  1.000000 O
   O37        1.0     0.748430      0.003475      0.232216     Biso  1.000000 O
   O38        1.0     0.749505      0.292669      0.717257     Biso  1.000000 O
   O39        1.0     0.754063      0.793897      0.770376     Biso  1.000000 O
   O40        1.0     0.754556      0.497417      0.279332     Biso  1.000000 O
   O41        1.0     0.794912      0.048488      0.757813     Biso  1.000000 O
   O42        1.0     0.795903      0.748828      0.238428     Biso  1.000000 O
   O43        1.0     0.797214      0.251598      0.274696     Biso  1.000000 O
   O44        1.0     0.798186      0.543623      0.729439     Biso  1.000000 O
   O45        1.0     0.874556      0.395223      0.991627     Biso  1.000000 O
   O46        1.0     0.878857      0.896679      0.492127     Biso  1.000000 O
   O47        1.0     0.917434      0.897254      0.992138     Biso  1.000000 O
   O48        1.0     0.922194      0.395852      0.491803     Biso  1.000000 O
