#======================================================================

# CRYSTAL DATA

#----------------------------------------------------------------------

data_VESTA_phase_1


_chemical_name_common                  ''
_cell_length_a                         10.52910
_cell_length_b                         10.54550
_cell_length_c                         7.77691
_cell_angle_alpha                      90
_cell_angle_beta                       90
_cell_angle_gamma                      90
_space_group_name_H-M_alt              'P 1'
_space_group_IT_number                 1

loop_
_space_group_symop_operation_xyz
   'x, y, z'

loop_
   _atom_site_label
   _atom_site_occupancy
   _atom_site_fract_x
   _atom_site_fract_y
   _atom_site_fract_z
   _atom_site_adp_type
   _atom_site_B_iso_or_equiv
   _atom_site_type_symbol
   W1         1.0     0.139000      0.152634      0.280695     Biso  1.000000 W
   W2         1.0     0.145289      0.140632      0.773612     Biso  1.000000 W
   W3         1.0     0.150576      0.654918      0.772535     Biso  1.000000 W
   W4         1.0     0.158315      0.642196      0.280811     Biso  1.000000 W
   W5         1.0     0.386877      0.397507      0.717119     Biso  1.000000 W
   W6         1.0     0.394603      0.905281      0.226814     Biso  1.000000 W
   W7         1.0     0.399915      0.387448      0.226517     Biso  1.000000 W
   W8         1.0     0.406720      0.896294      0.718445     Biso  1.000000 W
   W9         1.0     0.634758      0.649321      0.280625     Biso  1.000000 W
   W10        1.0     0.645331      0.636668      0.773497     Biso  1.000000 W
   W11        1.0     0.645569      0.161526      0.772129     Biso  1.000000 W
   W12        1.0     0.657614      0.148652      0.280014     Biso  1.000000 W
   W13        1.0     0.883708      0.896717      0.718949     Biso  1.000000 W
   W14        1.0     0.893423      0.411843      0.226652     Biso  1.000000 W
   W15        1.0     0.897906      0.884232      0.228360     Biso  1.000000 W
   W16        1.0     0.905637      0.399372      0.718465     Biso  1.000000 W
   O1         1.0    -0.002929      0.048248      0.252676     Biso  1.000000 O
   O2         1.0    -0.001672      0.748741      0.767674     Biso  1.000000 O
   O3         1.0     0.000933      0.251752      0.722101     Biso  1.000000 O
   O4         1.0     0.001831      0.546783      0.257225     Biso  1.000000 O
   O5         1.0     0.043712     -0.003638      0.766553     Biso  1.000000 O
   O6         1.0     0.044210      0.297258      0.279995     Biso  1.000000 O
   O7         1.0     0.048592      0.789049      0.222959     Biso  1.000000 O
   O8         1.0     0.049686      0.502257      0.725949     Biso  1.000000 O
   O9         1.0     0.142100      0.168252      1.008080     Biso  1.000000 O
   O10        1.0     0.143741      0.666523      0.506940     Biso  1.000000 O
   O11        1.0     0.150569      0.129720      0.507208     Biso  1.000000 O
   O12        1.0     0.157607      0.626656      1.006400     Biso  1.000000 O
   O13        1.0     0.248136      0.002149      0.227604     Biso  1.000000 O
   O14        1.0     0.248341      0.293765      0.728158     Biso  1.000000 O
   O15        1.0     0.253112      0.794726      0.762234     Biso  1.000000 O
   O16        1.0     0.253564      0.497292      0.281732     Biso  1.000000 O
   O17        1.0     0.294578      0.248952      0.260483     Biso  1.000000 O
   O18        1.0     0.295036      0.546378      0.720892     Biso  1.000000 O
   O19        1.0     0.295199      0.047339      0.765954     Biso  1.000000 O
   O20        1.0     0.296713      0.749439      0.247593     Biso  1.000000 O
   O21        1.0     0.378092      0.404285      0.992020     Biso  1.000000 O
   O22        1.0     0.380558      0.903495      0.491800     Biso  1.000000 O
   O23        1.0     0.415047      0.388326      0.491495     Biso  1.000000 O
   O24        1.0     0.415309      0.889908      0.991819     Biso  1.000000 O
   O25        1.0     0.497146      0.543221      0.252193     Biso  1.000000 O
   O26        1.0     0.497483      0.253566      0.769740     Biso  1.000000 O
   O27        1.0     0.500751      0.748183      0.722800     Biso  1.000000 O
   O28        1.0     0.501139      0.050509      0.256993     Biso  1.000000 O
   O29        1.0     0.541341      0.497850      0.758327     Biso  1.000000 O
   O30        1.0     0.541528      0.795108      0.280602     Biso  1.000000 O
   O31        1.0     0.546037      0.294425      0.225297     Biso  1.000000 O
   O32        1.0     0.546246      0.003638      0.731167     Biso  1.000000 O
   O33        1.0     0.634127      0.661705      1.008180     Biso  1.000000 O
   O34        1.0     0.639205      0.168190      0.506764     Biso  1.000000 O
   O35        1.0     0.654366      0.631413      0.507394     Biso  1.000000 O
   O36        1.0     0.656572      0.135596      1.006560     Biso  1.000000 O
   O37        1.0     0.745782      0.791869      0.739085     Biso  1.000000 O
   O38        1.0     0.746451      0.503956      0.227029     Biso  1.000000 O
   O39        1.0     0.750516      0.299795      0.756913     Biso  1.000000 O
   O40        1.0     0.751069     -0.000987      0.278126     Biso  1.000000 O
   O41        1.0     0.791310      0.747364      0.250807     Biso  1.000000 O
   O42        1.0     0.791411      0.051208      0.722188     Biso  1.000000 O
   O43        1.0     0.793756      0.544345      0.769877     Biso  1.000000 O
   O44        1.0     0.795227      0.255258      0.253086     Biso  1.000000 O
   O45        1.0     0.880235      0.412553      0.492090     Biso  1.000000 O
   O46        1.0     0.884453      0.905522      0.992873     Biso  1.000000 O
   O47        1.0     0.905928      0.882690      0.492177     Biso  1.000000 O
   O48        1.0     0.911769      0.390922      0.991990     Biso  1.000000 O
