#======================================================================

# CRYSTAL DATA

#----------------------------------------------------------------------

data_VESTA_phase_1


_chemical_name_common                  ''
_cell_length_a                         10.51510
_cell_length_b                         10.54200
_cell_length_c                         7.77892
_cell_angle_alpha                      90
_cell_angle_beta                       90
_cell_angle_gamma                      90
_space_group_name_H-M_alt              'P 1'
_space_group_IT_number                 1

loop_
_space_group_symop_operation_xyz
   'x, y, z'

loop_
   _atom_site_label
   _atom_site_occupancy
   _atom_site_fract_x
   _atom_site_fract_y
   _atom_site_fract_z
   _atom_site_adp_type
   _atom_site_B_iso_or_equiv
   _atom_site_type_symbol
   W1         1.0     0.139627      0.400450      0.227943     Biso  1.000000 W
   W2         1.0     0.146346      0.883570      0.718474     Biso  1.000000 W
   W3         1.0     0.151977      0.408738      0.720113     Biso  1.000000 W
   W4         1.0     0.159345      0.893474      0.225819     Biso  1.000000 W
   W5         1.0     0.388003      0.145374      0.773724     Biso  1.000000 W
   W6         1.0     0.394955      0.158686      0.282096     Biso  1.000000 W
   W7         1.0     0.401501      0.638163      0.282553     Biso  1.000000 W
   W8         1.0     0.407173      0.649842      0.773040     Biso  1.000000 W
   W9         1.0     0.639323      0.899773      0.227036     Biso  1.000000 W
   W10        1.0     0.641156      0.390189      0.717081     Biso  1.000000 W
   W11        1.0     0.651728      0.902683      0.718853     Biso  1.000000 W
   W12        1.0     0.653541      0.393605      0.225024     Biso  1.000000 W
   W13        1.0     0.888129      0.639814      0.773893     Biso  1.000000 W
   W14        1.0     0.888490      0.652291      0.281560     Biso  1.000000 W
   W15        1.0     0.900239      0.156394      0.773078     Biso  1.000000 W
   W16        1.0     0.901517      0.144170      0.282045     Biso  1.000000 W
   O1         1.0    -0.003050      0.503550      0.233412     Biso  1.000000 O
   O2         1.0    -0.002289      0.790075      0.719347     Biso  1.000000 O
   O3         1.0     0.002130      0.297935      0.770063     Biso  1.000000 O
   O4         1.0     0.002817     -0.002296      0.277713     Biso  1.000000 O
   O5         1.0     0.045574      0.546386      0.753563     Biso  1.000000 O
   O6         1.0     0.046470      0.251715      0.234892     Biso  1.000000 O
   O7         1.0     0.048948      0.750074      0.277036     Biso  1.000000 O
   O8         1.0     0.049821      0.046122      0.738641     Biso  1.000000 O
   O9         1.0     0.129525      0.887843      0.992119     Biso  1.000000 O
   O10        1.0     0.130379      0.396550      0.493078     Biso  1.000000 O
   O11        1.0     0.166748      0.404093      0.993041     Biso  1.000000 O
   O12        1.0     0.171166      0.896903      0.492527     Biso  1.000000 O
   O13        1.0     0.249751      0.252192      0.736799     Biso  1.000000 O
   O14        1.0     0.251159      0.050239      0.232583     Biso  1.000000 O
   O15        1.0     0.251545      0.544616      0.272028     Biso  1.000000 O
   O16        1.0     0.251554      0.744717      0.758308     Biso  1.000000 O
   O17        1.0     0.293330     -0.003475      0.773522     Biso  1.000000 O
   O18        1.0     0.293521      0.299174      0.275250     Biso  1.000000 O
   O19        1.0     0.298677      0.790688      0.232087     Biso  1.000000 O
   O20        1.0     0.298795      0.501614      0.721948     Biso  1.000000 O
   O21        1.0     0.391689      0.129526      0.507654     Biso  1.000000 O
   O22        1.0     0.399845      0.171137      1.008160     Biso  1.000000 O
   O23        1.0     0.400171      0.625503      1.007730     Biso  1.000000 O
   O24        1.0     0.400960      0.666302      0.508621     Biso  1.000000 O
   O25        1.0     0.497110      0.003475      0.232246     Biso  1.000000 O
   O26        1.0     0.498182      0.292669      0.717351     Biso  1.000000 O
   O27        1.0     0.502729      0.793897      0.770477     Biso  1.000000 O
   O28        1.0     0.503220      0.497417      0.279368     Biso  1.000000 O
   O29        1.0     0.543475      0.048488      0.757912     Biso  1.000000 O
   O30        1.0     0.544463      0.748828      0.238459     Biso  1.000000 O
   O31        1.0     0.545771      0.251598      0.274732     Biso  1.000000 O
   O32        1.0     0.546740      0.543623      0.729535     Biso  1.000000 O
   O33        1.0     0.622917      0.395223      0.991692     Biso  1.000000 O
   O34        1.0     0.627207      0.896679      0.492191     Biso  1.000000 O
   O35        1.0     0.665687      0.897254      0.992202     Biso  1.000000 O
   O36        1.0     0.670435      0.395852      0.491867     Biso  1.000000 O
   O37        1.0     0.747024      0.545289      0.235965     Biso  1.000000 O
   O38        1.0     0.747498      0.249634      0.765136     Biso  1.000000 O
   O39        1.0     0.748043      0.748597      0.731411     Biso  1.000000 O
   O40        1.0     0.749253      0.048428      0.267435     Biso  1.000000 O
   O41        1.0     0.789946      0.496594      0.772081     Biso  1.000000 O
   O42        1.0     0.790508      0.794947      0.278530     Biso  1.000000 O
   O43        1.0     0.794718      0.293519      0.225734     Biso  1.000000 O
   O44        1.0     0.796374      0.002288      0.722685     Biso  1.000000 O
   O45        1.0     0.891973      0.625241      0.507502     Biso  1.000000 O
   O46        1.0     0.893029      0.667593      1.008310     Biso  1.000000 O
   O47        1.0     0.893409      0.171656      0.507981     Biso  1.000000 O
   O48        1.0     0.900949      0.128623      1.007120     Biso  1.000000 O
