#======================================================================

# CRYSTAL DATA

#----------------------------------------------------------------------

data_VESTA_phase_1


_chemical_name_common                  ''
_cell_length_a                         10.48350
_cell_length_b                         10.54200
_cell_length_c                         7.77892
_cell_angle_alpha                      90
_cell_angle_beta                       90
_cell_angle_gamma                      90
_space_group_name_H-M_alt              'P 1'
_space_group_IT_number                 1

loop_
_space_group_symop_operation_xyz
   'x, y, z'

loop_
   _atom_site_label
   _atom_site_occupancy
   _atom_site_fract_x
   _atom_site_fract_y
   _atom_site_fract_z
   _atom_site_adp_type
   _atom_site_B_iso_or_equiv
   _atom_site_type_symbol
   W1         1.0     0.138668      0.145374      0.773724     Biso  1.000000 W
   W2         1.0     0.145642      0.158686      0.282096     Biso  1.000000 W
   W3         1.0     0.152208      0.638163      0.282553     Biso  1.000000 W
   W4         1.0     0.157897      0.649842      0.773040     Biso  1.000000 W
   W5         1.0     0.390746      0.899773      0.227036     Biso  1.000000 W
   W6         1.0     0.392585      0.390189      0.717081     Biso  1.000000 W
   W7         1.0     0.403189      0.902683      0.718853     Biso  1.000000 W
   W8         1.0     0.405007      0.393605      0.225024     Biso  1.000000 W
   W9         1.0     0.640302      0.639814      0.773893     Biso  1.000000 W
   W10        1.0     0.640664      0.652291      0.281560     Biso  1.000000 W
   W11        1.0     0.652449      0.156394      0.773078     Biso  1.000000 W
   W12        1.0     0.653730      0.144170      0.282045     Biso  1.000000 W
   W13        1.0     0.888098      0.891296      0.716888     Biso  1.000000 W
   W14        1.0     0.891657      0.406846      0.227577     Biso  1.000000 W
   W15        1.0     0.900737      0.886949      0.225869     Biso  1.000000 W
   W16        1.0     0.903795      0.403224      0.719223     Biso  1.000000 W
   O1         1.0    -0.000470      0.252393      0.732088     Biso  1.000000 O
   O2         1.0    -0.001133      0.049116      0.237967     Biso  1.000000 O
   O3         1.0     0.000900      0.545442      0.267522     Biso  1.000000 O
   O4         1.0    -0.000535      0.746875      0.763952     Biso  1.000000 O
   O5         1.0     0.043711     -0.003475      0.773522     Biso  1.000000 O
   O6         1.0     0.043902      0.299174      0.275250     Biso  1.000000 O
   O7         1.0     0.049073      0.790688      0.232087     Biso  1.000000 O
   O8         1.0     0.049192      0.501614      0.721948     Biso  1.000000 O
   O9         1.0     0.142366      0.129526      0.507654     Biso  1.000000 O
   O10        1.0     0.150546      0.171137      1.008160     Biso  1.000000 O
   O11        1.0     0.150873      0.625503      1.007730     Biso  1.000000 O
   O12        1.0     0.151665      0.666302      0.508621     Biso  1.000000 O
   O13        1.0     0.248105      0.003475      0.232246     Biso  1.000000 O
   O14        1.0     0.249180      0.292669      0.717351     Biso  1.000000 O
   O15        1.0     0.253741      0.793897      0.770477     Biso  1.000000 O
   O16        1.0     0.254233      0.497417      0.279368     Biso  1.000000 O
   O17        1.0     0.294609      0.048488      0.757912     Biso  1.000000 O
   O18        1.0     0.295600      0.748828      0.238459     Biso  1.000000 O
   O19        1.0     0.296912      0.251598      0.274732     Biso  1.000000 O
   O20        1.0     0.297884      0.543623      0.729535     Biso  1.000000 O
   O21        1.0     0.374291      0.395223      0.991692     Biso  1.000000 O
   O22        1.0     0.378594      0.896679      0.492191     Biso  1.000000 O
   O23        1.0     0.417190      0.897254      0.992202     Biso  1.000000 O
   O24        1.0     0.421952      0.395852      0.491867     Biso  1.000000 O
   O25        1.0     0.498772      0.545289      0.235965     Biso  1.000000 O
   O26        1.0     0.499248      0.249634      0.765136     Biso  1.000000 O
   O27        1.0     0.499794      0.748597      0.731411     Biso  1.000000 O
   O28        1.0     0.501008      0.048428      0.267435     Biso  1.000000 O
   O29        1.0     0.541824      0.496594      0.772081     Biso  1.000000 O
   O30        1.0     0.542387      0.794947      0.278530     Biso  1.000000 O
   O31        1.0     0.546609      0.293519      0.225734     Biso  1.000000 O
   O32        1.0     0.548270      0.002288      0.722685     Biso  1.000000 O
   O33        1.0     0.644157      0.625241      0.507502     Biso  1.000000 O
   O34        1.0     0.645217      0.667593      1.008310     Biso  1.000000 O
   O35        1.0     0.645598      0.171656      0.507981     Biso  1.000000 O
   O36        1.0     0.653161      0.128623      1.007120     Biso  1.000000 O
   O37        1.0     0.746392      0.503013      0.229574     Biso  1.000000 O
   O38        1.0     0.747444      0.790015      0.721095     Biso  1.000000 O
   O39        1.0     0.751770      0.298333      0.767756     Biso  1.000000 O
   O40        1.0     0.752438     -0.002430      0.282704     Biso  1.000000 O
   O41        1.0     0.793378      0.544775      0.762341     Biso  1.000000 O
   O42        1.0     0.794517      0.253015      0.243008     Biso  1.000000 O
   O43        1.0     0.794520      0.746724      0.269108     Biso  1.000000 O
   O44        1.0     0.795094      0.049265      0.723741     Biso  1.000000 O
   O45        1.0     0.872977      0.896706      0.992124     Biso  1.000000 O
   O46        1.0     0.877558      0.404001      0.492575     Biso  1.000000 O
   O47        1.0     0.915522      0.397690      0.992555     Biso  1.000000 O
   O48        1.0     0.918992      0.888910      0.491904     Biso  1.000000 O
