#======================================================================

# CRYSTAL DATA

#----------------------------------------------------------------------

data_VESTA_phase_1


_chemical_name_common                  ''
_cell_length_a                         10.51450
_cell_length_b                         10.53360
_cell_length_c                         7.78490
_cell_angle_alpha                      90
_cell_angle_beta                       90
_cell_angle_gamma                      90
_space_group_name_H-M_alt              'P 1'
_space_group_IT_number                 1

loop_
_space_group_symop_operation_xyz
   'x, y, z'

loop_
   _atom_site_label
   _atom_site_occupancy
   _atom_site_fract_x
   _atom_site_fract_y
   _atom_site_fract_z
   _atom_site_adp_type
   _atom_site_B_iso_or_equiv
   _atom_site_type_symbol
   W1         1.0     0.142293      0.899444      0.226862     Biso  1.000000 W
   W2         1.0     0.144127      0.389454      0.716530     Biso  1.000000 W
   W3         1.0     0.154699      0.902357      0.718300     Biso  1.000000 W
   W4         1.0     0.156512      0.392872      0.224851     Biso  1.000000 W
   W5         1.0     0.391113      0.639278      0.773298     Biso  1.000000 W
   W6         1.0     0.391474      0.651765      0.281343     Biso  1.000000 W
   W7         1.0     0.403224      0.155472      0.772484     Biso  1.000000 W
   W8         1.0     0.404502      0.143238      0.281829     Biso  1.000000 W
   W9         1.0     0.638178      0.890961      0.716337     Biso  1.000000 W
   W10        1.0     0.641727      0.406124      0.227402     Biso  1.000000 W
   W11        1.0     0.650780      0.886610      0.225695     Biso  1.000000 W
   W12        1.0     0.653829      0.402499      0.718670     Biso  1.000000 W
   W13        1.0     0.885277      0.153172      0.281538     Biso  1.000000 W
   W14        1.0     0.891574      0.141156      0.773949     Biso  1.000000 W
   W15        1.0     0.896869      0.656021      0.772873     Biso  1.000000 W
   W16        1.0     0.904618      0.643285      0.281653     Biso  1.000000 W
   O1         1.0    -0.002682      0.002955      0.230285     Biso  1.000000 O
   O2         1.0    -0.002043      0.293159      0.722671     Biso  1.000000 O
   O3         1.0     0.002620      0.794735      0.766234     Biso  1.000000 O
   O4         1.0     0.003091      0.497492      0.280864     Biso  1.000000 O
   O5         1.0     0.046440      0.047480      0.757330     Biso  1.000000 O
   O6         1.0     0.047428      0.748379      0.238276     Biso  1.000000 O
   O7         1.0     0.048735      0.250752      0.274521     Biso  1.000000 O
   O8         1.0     0.049705      0.543010      0.728974     Biso  1.000000 O
   O9         1.0     0.125886      0.394492      0.991314     Biso  1.000000 O
   O10        1.0     0.130176      0.896348      0.491813     Biso  1.000000 O
   O11        1.0     0.168659      0.896924      0.991824     Biso  1.000000 O
   O12        1.0     0.173407      0.395121      0.491489     Biso  1.000000 O
   O13        1.0     0.250000      0.544678      0.235784     Biso  1.000000 O
   O14        1.0     0.250475      0.248786      0.764548     Biso  1.000000 O
   O15        1.0     0.251020      0.748148      0.730849     Biso  1.000000 O
   O16        1.0     0.252229      0.047421      0.267229     Biso  1.000000 O
   O17        1.0     0.292925      0.495944      0.771488     Biso  1.000000 O
   O18        1.0     0.293487      0.794534      0.278316     Biso  1.000000 O
   O19        1.0     0.297697      0.292707      0.225561     Biso  1.000000 O
   O20        1.0     0.299353      0.001642      0.722130     Biso  1.000000 O
   O21        1.0     0.394957      0.624693      0.507112     Biso  1.000000 O
   O22        1.0     0.396014      0.667079      1.007920     Biso  1.000000 O
   O23        1.0     0.396394      0.170746      0.507591     Biso  1.000000 O
   O24        1.0     0.403934      0.127679      1.006730     Biso  1.000000 O
   O25        1.0     0.496890      0.502368      0.229398     Biso  1.000000 O
   O26        1.0     0.497939      0.789598      0.720541     Biso  1.000000 O
   O27        1.0     0.502253      0.297524      0.767166     Biso  1.000000 O
   O28        1.0     0.502918     -0.003079      0.282487     Biso  1.000000 O
   O29        1.0     0.543738      0.544163      0.761755     Biso  1.000000 O
   O30        1.0     0.544873      0.252170      0.242822     Biso  1.000000 O
   O31        1.0     0.544876      0.746273      0.268902     Biso  1.000000 O
   O32        1.0     0.545448      0.048258      0.723185     Biso  1.000000 O
   O33        1.0     0.623102      0.896375      0.991746     Biso  1.000000 O
   O34        1.0     0.627669      0.403277      0.492197     Biso  1.000000 O
   O35        1.0     0.665521      0.396961      0.992177     Biso  1.000000 O
   O36        1.0     0.668981      0.888572      0.491526     Biso  1.000000 O
   O37        1.0     0.746083      0.046986      0.243164     Biso  1.000000 O
   O38        1.0     0.746880      0.748584      0.769004     Biso  1.000000 O
   O39        1.0     0.748813      0.251750      0.726819     Biso  1.000000 O
   O40        1.0     0.749750      0.545657      0.262814     Biso  1.000000 O
   O41        1.0     0.789856     -0.002714      0.766897     Biso  1.000000 O
   O42        1.0     0.790354      0.297958      0.280839     Biso  1.000000 O
   O43        1.0     0.794743      0.790303      0.223861     Biso  1.000000 O
   O44        1.0     0.795838      0.503188      0.726334     Biso  1.000000 O
   O45        1.0     0.888381      0.168807      1.008690     Biso  1.000000 O
   O46        1.0     0.890024      0.667639      0.507551     Biso  1.000000 O
   O47        1.0     0.896861      0.130231      0.507819     Biso  1.000000 O
   O48        1.0     0.903910      0.627727      1.007010     Biso  1.000000 O
