#======================================================================

# CRYSTAL DATA

#----------------------------------------------------------------------

data_VESTA_phase_1


_chemical_name_common                  ''
_cell_length_a                         10.52150
_cell_length_b                         10.52900
_cell_length_c                         7.77691
_cell_angle_alpha                      90
_cell_angle_beta                       90
_cell_angle_gamma                      90
_space_group_name_H-M_alt              'P 1'
_space_group_IT_number                 1

loop_
_space_group_symop_operation_xyz
   'x, y, z'

loop_
   _atom_site_label
   _atom_site_occupancy
   _atom_site_fract_x
   _atom_site_fract_y
   _atom_site_fract_z
   _atom_site_adp_type
   _atom_site_B_iso_or_equiv
   _atom_site_type_symbol
   W1         1.0     0.138914      0.396075      0.717119     Biso  1.000000 W
   W2         1.0     0.146645      0.904644      0.226814     Biso  1.000000 W
   W3         1.0     0.151961      0.386000      0.226517     Biso  1.000000 W
   W4         1.0     0.158772      0.895644      0.718445     Biso  1.000000 W
   W5         1.0     0.386975      0.648283      0.280625     Biso  1.000000 W
   W6         1.0     0.397555      0.635611      0.773497     Biso  1.000000 W
   W7         1.0     0.397794      0.159724      0.772129     Biso  1.000000 W
   W8         1.0     0.409848      0.146830      0.280014     Biso  1.000000 W
   W9         1.0     0.636106      0.896067      0.718949     Biso  1.000000 W
   W10        1.0     0.645828      0.410434      0.226652     Biso  1.000000 W
   W11        1.0     0.650314      0.883562      0.228360     Biso  1.000000 W
   W12        1.0     0.658051      0.397943      0.718465     Biso  1.000000 W
   W13        1.0     0.883040      0.153070      0.284058     Biso  1.000000 W
   W14        1.0     0.894806      0.658327      0.768500     Biso  1.000000 W
   W15        1.0     0.896458      0.138923      0.768500     Biso  1.000000 W
   W16        1.0     0.908571      0.645280      0.284058     Biso  1.000000 W
   O1         1.0    -0.002201      0.001870      0.230465     Biso  1.000000 O
   O2         1.0    -0.002789      0.293592      0.732549     Biso  1.000000 O
   O3         1.0     0.002526      0.794323      0.754873     Biso  1.000000 O
   O4         1.0     0.002488      0.497426      0.281987     Biso  1.000000 O
   O5         1.0     0.046548      0.247287      0.260483     Biso  1.000000 O
   O6         1.0     0.047006      0.545179      0.720892     Biso  1.000000 O
   O7         1.0     0.047170      0.045358      0.765954     Biso  1.000000 O
   O8         1.0     0.048684      0.748558      0.247593     Biso  1.000000 O
   O9         1.0     0.130123      0.402863      0.992020     Biso  1.000000 O
   O10        1.0     0.132591      0.902856      0.491800     Biso  1.000000 O
   O11        1.0     0.167105      0.386879      0.491495     Biso  1.000000 O
   O12        1.0     0.167367      0.889248      0.991819     Biso  1.000000 O
   O13        1.0     0.249263      0.542017      0.252193     Biso  1.000000 O
   O14        1.0     0.249601      0.251908      0.769740     Biso  1.000000 O
   O15        1.0     0.252871      0.747300      0.722800     Biso  1.000000 O
   O16        1.0     0.253259      0.048533      0.256993     Biso  1.000000 O
   O17        1.0     0.293490      0.496575      0.758327     Biso  1.000000 O
   O18        1.0     0.293678      0.794299      0.280602     Biso  1.000000 O
   O19        1.0     0.298189      0.292831      0.225297     Biso  1.000000 O
   O20        1.0     0.298399      0.002372      0.731167     Biso  1.000000 O
   O21        1.0     0.386343      0.660687      1.008180     Biso  1.000000 O
   O22        1.0     0.391425      0.166398      0.506764     Biso  1.000000 O
   O23        1.0     0.406597      0.630347      0.507394     Biso  1.000000 O
   O24        1.0     0.408805      0.133753      1.006560     Biso  1.000000 O
   O25        1.0     0.498080      0.791055      0.739085     Biso  1.000000 O
   O26        1.0     0.498749      0.502691      0.227029     Biso  1.000000 O
   O27        1.0     0.502817      0.298210      0.756913     Biso  1.000000 O
   O28        1.0     0.503371     -0.002260      0.278126     Biso  1.000000 O
   O29        1.0     0.543641      0.746481      0.250807     Biso  1.000000 O
   O30        1.0     0.543742      0.049233      0.722188     Biso  1.000000 O
   O31        1.0     0.546088      0.543143      0.769877     Biso  1.000000 O
   O32        1.0     0.547560      0.253602      0.253086     Biso  1.000000 O
   O33        1.0     0.632630      0.411145      0.492090     Biso  1.000000 O
   O34        1.0     0.636852      0.904886      0.992873     Biso  1.000000 O
   O35        1.0     0.658342      0.882018      0.492177     Biso  1.000000 O
   O36        1.0     0.664187      0.389479      0.991990     Biso  1.000000 O
   O37        1.0     0.746620      0.047951      0.263071     Biso  1.000000 O
   O38        1.0     0.748340      0.749227      0.766685     Biso  1.000000 O
   O39        1.0     0.751620      0.250742      0.717768     Biso  1.000000 O
   O40        1.0     0.752482      0.547691      0.252498     Biso  1.000000 O
   O41        1.0     0.791980     -0.002860      0.747513     Biso  1.000000 O
   O42        1.0     0.792142      0.299516      0.282243     Biso  1.000000 O
   O43        1.0     0.796822      0.790176      0.233326     Biso  1.000000 O
   O44        1.0     0.797142      0.502308      0.736940     Biso  1.000000 O
   O45        1.0     0.881592      0.162222      1.007380     Biso  1.000000 O
   O46        1.0     0.885493      0.659988      0.507382     Biso  1.000000 O
   O47        1.0     0.905966      0.137854      0.507382     Biso  1.000000 O
   O48        1.0     0.909859      0.635620      1.007380     Biso  1.000000 O
