#======================================================================

# CRYSTAL DATA

#----------------------------------------------------------------------

data_VESTA_phase_1


_chemical_name_common                  ''
_cell_length_a                         10.52480
_cell_length_b                         10.52900
_cell_length_c                         7.77557
_cell_angle_alpha                      90
_cell_angle_beta                       90
_cell_angle_gamma                      90
_space_group_name_H-M_alt              'P 1'
_space_group_IT_number                 1

loop_
_space_group_symop_operation_xyz
   'x, y, z'

loop_
   _atom_site_label
   _atom_site_occupancy
   _atom_site_fract_x
   _atom_site_fract_y
   _atom_site_fract_z
   _atom_site_adp_type
   _atom_site_B_iso_or_equiv
   _atom_site_type_symbol
   W1         1.0     0.137669      0.648283      0.280501     Biso  1.000000 W
   W2         1.0     0.148245      0.635611      0.773458     Biso  1.000000 W
   W3         1.0     0.148483      0.159724      0.772090     Biso  1.000000 W
   W4         1.0     0.160534      0.146830      0.279891     Biso  1.000000 W
   W5         1.0     0.386720      0.896067      0.718900     Biso  1.000000 W
   W6         1.0     0.396439      0.410434      0.226519     Biso  1.000000 W
   W7         1.0     0.400923      0.883562      0.228227     Biso  1.000000 W
   W8         1.0     0.408658      0.397943      0.718416     Biso  1.000000 W
   W9         1.0     0.633576      0.153070      0.283935     Biso  1.000000 W
   W10        1.0     0.645338      0.658327      0.768460     Biso  1.000000 W
   W11        1.0     0.646990      0.138923      0.768460     Biso  1.000000 W
   W12        1.0     0.659099      0.645280      0.283935     Biso  1.000000 W
   W13        1.0     0.881038      0.400179      0.715904     Biso  1.000000 W
   W14        1.0     0.893139      0.906536      0.231379     Biso  1.000000 W
   W15        1.0     0.894798      0.387132      0.231379     Biso  1.000000 W
   W16        1.0     0.906561      0.892389      0.715904     Biso  1.000000 W
   O1         1.0    -0.002503      0.542270      0.257504     Biso  1.000000 O
   O2         1.0    -0.002175      0.253281      0.768173     Biso  1.000000 O
   O3         1.0     0.001803      0.746307      0.720236     Biso  1.000000 O
   O4         1.0     0.001728      0.050826      0.254617     Biso  1.000000 O
   O5         1.0     0.044213      0.496575      0.758285     Biso  1.000000 O
   O6         1.0     0.044401      0.794299      0.280478     Biso  1.000000 O
   O7         1.0     0.048911      0.292831      0.225164     Biso  1.000000 O
   O8         1.0     0.049120      0.002372      0.731121     Biso  1.000000 O
   O9         1.0     0.137037      0.660687      1.008100     Biso  1.000000 O
   O10        1.0     0.142117      0.166398      0.506679     Biso  1.000000 O
   O11        1.0     0.157284      0.630347      0.507309     Biso  1.000000 O
   O12        1.0     0.159492      0.133753      1.006470     Biso  1.000000 O
   O13        1.0     0.248738      0.791055      0.739040     Biso  1.000000 O
   O14        1.0     0.249407      0.502691      0.226896     Biso  1.000000 O
   O15        1.0     0.253474      0.298210      0.756871     Biso  1.000000 O
   O16        1.0     0.254027     -0.002260      0.278002     Biso  1.000000 O
   O17        1.0     0.294285      0.746481      0.250678     Biso  1.000000 O
   O18        1.0     0.294385      0.049233      0.722140     Biso  1.000000 O
   O19        1.0     0.296731      0.543143      0.769838     Biso  1.000000 O
   O20        1.0     0.298202      0.253602      0.252958     Biso  1.000000 O
   O21        1.0     0.383245      0.411145      0.492003     Biso  1.000000 O
   O22        1.0     0.387466      0.904886      0.992786     Biso  1.000000 O
   O23        1.0     0.408949      0.882018      0.492090     Biso  1.000000 O
   O24        1.0     0.414793      0.389479      0.991903     Biso  1.000000 O
   O25        1.0     0.497199      0.047951      0.262944     Biso  1.000000 O
   O26        1.0     0.498919      0.749227      0.766645     Biso  1.000000 O
   O27        1.0     0.502198      0.250742      0.717719     Biso  1.000000 O
   O28        1.0     0.503059      0.547691      0.252369     Biso  1.000000 O
   O29        1.0     0.542545     -0.002860      0.747470     Biso  1.000000 O
   O30        1.0     0.542706      0.299516      0.282120     Biso  1.000000 O
   O31        1.0     0.547386      0.790176      0.233194     Biso  1.000000 O
   O32        1.0     0.547705      0.502308      0.736895     Biso  1.000000 O
   O33        1.0     0.632129      0.162222      1.007300     Biso  1.000000 O
   O34        1.0     0.636028      0.659988      0.507297     Biso  1.000000 O
   O35        1.0     0.656495      0.137854      0.507297     Biso  1.000000 O
   O36        1.0     0.660386      0.635620      1.007300     Biso  1.000000 O
   O37        1.0     0.744646      0.295013      0.736895     Biso  1.000000 O
   O38        1.0     0.746026      0.002860      0.233194     Biso  1.000000 O
   O39        1.0     0.749970      0.498836      0.282120     Biso  1.000000 O
   O40        1.0     0.750499      0.794729      0.747470     Biso  1.000000 O
   O41        1.0     0.789638      0.250730      0.252369     Biso  1.000000 O
   O42        1.0     0.790167      0.546622      0.717719     Biso  1.000000 O
   O43        1.0     0.793411      0.048027      0.766645     Biso  1.000000 O
   O44        1.0     0.795491      0.750446      0.262944     Biso  1.000000 O
   O45        1.0     0.879750      0.409838      0.992542     Biso  1.000000 O
   O46        1.0     0.883641      0.907604      0.492542     Biso  1.000000 O
   O47        1.0     0.904116      0.385470      0.492542     Biso  1.000000 O
   O48        1.0     0.908007      0.883237      0.992542     Biso  1.000000 O
