#======================================================================

# CRYSTAL DATA

#----------------------------------------------------------------------

data_VESTA_phase_1


_chemical_name_common                  ''
_cell_length_a                         10.53510
_cell_length_b                         10.52900
_cell_length_c                         7.76936
_cell_angle_alpha                      90
_cell_angle_beta                       90
_cell_angle_gamma                      90
_space_group_name_H-M_alt              'P 1'
_space_group_IT_number                 1

loop_
_space_group_symop_operation_xyz
   'x, y, z'

loop_
   _atom_site_label
   _atom_site_occupancy
   _atom_site_fract_x
   _atom_site_fract_y
   _atom_site_fract_z
   _atom_site_adp_type
   _atom_site_B_iso_or_equiv
   _atom_site_type_symbol
   W1         1.0     0.137848      0.896067      0.719475     Biso  1.000000 W
   W2         1.0     0.147557      0.410434      0.226700     Biso  1.000000 W
   W3         1.0     0.152037      0.883562      0.228410     Biso  1.000000 W
   W4         1.0     0.159765      0.397943      0.718991     Biso  1.000000 W
   W5         1.0     0.384463      0.153070      0.284162     Biso  1.000000 W
   W6         1.0     0.396214      0.658327      0.769075     Biso  1.000000 W
   W7         1.0     0.397864      0.138923      0.769075     Biso  1.000000 W
   W8         1.0     0.409961      0.645280      0.284162     Biso  1.000000 W
   W9         1.0     0.631684      0.400179      0.716477     Biso  1.000000 W
   W10        1.0     0.643773      0.906536      0.231564     Biso  1.000000 W
   W11        1.0     0.645430      0.387132      0.231564     Biso  1.000000 W
   W12        1.0     0.657182      0.892389      0.716477     Biso  1.000000 W
   W13        1.0     0.884339      0.647013      0.284162     Biso  1.000000 W
   W14        1.0     0.894691      0.163126      0.769075     Biso  1.000000 W
   W15        1.0     0.897748      0.632867      0.769075     Biso  1.000000 W
   W16        1.0     0.908446      0.150081      0.284162     Biso  1.000000 W
   O1         1.0    -0.002350      0.790005      0.738557     Biso  1.000000 O
   O2         1.0    -0.001676      0.502461      0.230229     Biso  1.000000 O
   O3         1.0     0.002240      0.298869      0.752772     Biso  1.000000 O
   O4         1.0     0.002606     -0.002026      0.280284     Biso  1.000000 O
   O5         1.0     0.045502      0.746481      0.250878     Biso  1.000000 O
   O6         1.0     0.045603      0.049233      0.722718     Biso  1.000000 O
   O7         1.0     0.047947      0.543143      0.770453     Biso  1.000000 O
   O8         1.0     0.049417      0.253602      0.253160     Biso  1.000000 O
   O9         1.0     0.134377      0.411145      0.492396     Biso  1.000000 O
   O10        1.0     0.138593      0.904886      0.993180     Biso  1.000000 O
   O11        1.0     0.160055      0.882018      0.492483     Biso  1.000000 O
   O12        1.0     0.165893      0.389479      0.992296     Biso  1.000000 O
   O13        1.0     0.248219      0.047951      0.263154     Biso  1.000000 O
   O14        1.0     0.249937      0.749227      0.767258     Biso  1.000000 O
   O15        1.0     0.253213      0.250742      0.718293     Biso  1.000000 O
   O16        1.0     0.254074      0.547691      0.252571     Biso  1.000000 O
   O17        1.0     0.293521     -0.002860      0.748067     Biso  1.000000 O
   O18        1.0     0.293682      0.299516      0.282345     Biso  1.000000 O
   O19        1.0     0.298357      0.790176      0.233380     Biso  1.000000 O
   O20        1.0     0.298676      0.502308      0.737484     Biso  1.000000 O
   O21        1.0     0.383017      0.162222      1.007700     Biso  1.000000 O
   O22        1.0     0.386912      0.659988      0.507703     Biso  1.000000 O
   O23        1.0     0.407360      0.137854      0.507703     Biso  1.000000 O
   O24        1.0     0.411247      0.635620      1.007700     Biso  1.000000 O
   O25        1.0     0.495425      0.295013      0.737484     Biso  1.000000 O
   O26        1.0     0.496803      0.002860      0.233380     Biso  1.000000 O
   O27        1.0     0.500743      0.498836      0.282345     Biso  1.000000 O
   O28        1.0     0.501272      0.794729      0.748067     Biso  1.000000 O
   O29        1.0     0.540373      0.250730      0.252571     Biso  1.000000 O
   O30        1.0     0.540901      0.546622      0.718293     Biso  1.000000 O
   O31        1.0     0.544142      0.048027      0.767258     Biso  1.000000 O
   O32        1.0     0.546220      0.750446      0.263154     Biso  1.000000 O
   O33        1.0     0.630397      0.409838      0.992936     Biso  1.000000 O
   O34        1.0     0.634285      0.907604      0.492936     Biso  1.000000 O
   O35        1.0     0.654740      0.385470      0.492936     Biso  1.000000 O
   O36        1.0     0.658627      0.883237      0.992936     Biso  1.000000 O
   O37        1.0     0.745528      0.542523      0.263154     Biso  1.000000 O
   O38        1.0     0.745847      0.254655      0.767258     Biso  1.000000 O
   O39        1.0     0.749992      0.053119      0.252571     Biso  1.000000 O
   O40        1.0     0.750530      0.745314      0.718293     Biso  1.000000 O
   O41        1.0     0.792705      0.496512      0.748067     Biso  1.000000 O
   O42        1.0     0.793558      0.793461      0.282345     Biso  1.000000 O
   O43        1.0     0.796842      0.294977      0.233380     Biso  1.000000 O
   O44        1.0     0.797861      0.001681      0.737484     Biso  1.000000 O
   O45        1.0     0.882893      0.656166      1.007700     Biso  1.000000 O
   O46        1.0     0.885390      0.164789      0.507703     Biso  1.000000 O
   O47        1.0     0.907236      0.631798      0.507703     Biso  1.000000 O
   O48        1.0     0.909732      0.140420      1.007700     Biso  1.000000 O
