#======================================================================

# CRYSTAL DATA

#----------------------------------------------------------------------

data_VESTA_phase_1


_chemical_name_common                  ''
_cell_length_a                         10.52540
_cell_length_b                         10.52900
_cell_length_c                         7.76439
_cell_angle_alpha                      90
_cell_angle_beta                       90
_cell_angle_gamma                      90
_space_group_name_H-M_alt              'P 1'
_space_group_IT_number                 1

loop_
_space_group_symop_operation_xyz
   'x, y, z'

loop_
   _atom_site_label
   _atom_site_occupancy
   _atom_site_fract_x
   _atom_site_fract_y
   _atom_site_fract_z
   _atom_site_adp_type
   _atom_site_B_iso_or_equiv
   _atom_site_type_symbol
   W1         1.0     0.136369      0.153070      0.283704     Biso  1.000000 W
   W2         1.0     0.148131      0.658327      0.768927     Biso  1.000000 W
   W3         1.0     0.149782      0.138923      0.768927     Biso  1.000000 W
   W4         1.0     0.161891      0.645280      0.283704     Biso  1.000000 W
   W5         1.0     0.383817      0.400179      0.716295     Biso  1.000000 W
   W6         1.0     0.395917      0.906536      0.231072     Biso  1.000000 W
   W7         1.0     0.397576      0.387132      0.231072     Biso  1.000000 W
   W8         1.0     0.409338      0.892389      0.716295     Biso  1.000000 W
   W9         1.0     0.636705      0.647013      0.283704     Biso  1.000000 W
   W10        1.0     0.647066      0.163126      0.768927     Biso  1.000000 W
   W11        1.0     0.650126      0.632867      0.768927     Biso  1.000000 W
   W12        1.0     0.660834      0.150081      0.283704     Biso  1.000000 W
   W13        1.0     0.884152      0.894123      0.716295     Biso  1.000000 W
   W14        1.0     0.894861      0.411337      0.231072     Biso  1.000000 W
   W15        1.0     0.897920      0.881076      0.231072     Biso  1.000000 W
   W16        1.0     0.908282      0.397190      0.716295     Biso  1.000000 W
   O1         1.0    -0.002930      0.047951      0.262683     Biso  1.000000 O
   O2         1.0    -0.001210      0.749227      0.767109     Biso  1.000000 O
   O3         1.0     0.002072      0.250742      0.718113     Biso  1.000000 O
   O4         1.0     0.002930      0.547691      0.252093     Biso  1.000000 O
   O5         1.0     0.045343     -0.002860      0.747906     Biso  1.000000 O
   O6         1.0     0.045504      0.299516      0.281886     Biso  1.000000 O
   O7         1.0     0.050184      0.790176      0.232890     Biso  1.000000 O
   O8         1.0     0.050503      0.502308      0.737316     Biso  1.000000 O
   O9         1.0     0.134922      0.162222      1.007390     Biso  1.000000 O
   O10        1.0     0.138821      0.659988      0.507388     Biso  1.000000 O
   O11        1.0     0.159287      0.137854      0.507388     Biso  1.000000 O
   O12        1.0     0.163178      0.635620      1.007390     Biso  1.000000 O
   O13        1.0     0.247433      0.295013      0.737316     Biso  1.000000 O
   O14        1.0     0.248812      0.002860      0.232890     Biso  1.000000 O
   O15        1.0     0.252756      0.498836      0.281886     Biso  1.000000 O
   O16        1.0     0.253285      0.794729      0.747906     Biso  1.000000 O
   O17        1.0     0.292422      0.250730      0.252093     Biso  1.000000 O
   O18        1.0     0.292951      0.546622      0.718113     Biso  1.000000 O
   O19        1.0     0.296195      0.048027      0.767109     Biso  1.000000 O
   O20        1.0     0.298275      0.750446      0.262683     Biso  1.000000 O
   O21        1.0     0.382529      0.409838      0.992611     Biso  1.000000 O
   O22        1.0     0.386420      0.907604      0.492611     Biso  1.000000 O
   O23        1.0     0.406894      0.385470      0.492611     Biso  1.000000 O
   O24        1.0     0.410785      0.883237      0.992611     Biso  1.000000 O
   O25        1.0     0.497766      0.542523      0.262683     Biso  1.000000 O
   O26        1.0     0.498085      0.254655      0.767109     Biso  1.000000 O
   O27        1.0     0.502234      0.053119      0.252093     Biso  1.000000 O
   O28        1.0     0.502772      0.745314      0.718113     Biso  1.000000 O
   O29        1.0     0.544987      0.496512      0.747906     Biso  1.000000 O
   O30        1.0     0.545840      0.793461      0.281886     Biso  1.000000 O
   O31        1.0     0.549127      0.294977      0.232890     Biso  1.000000 O
   O32        1.0     0.550147      0.001681      0.737316     Biso  1.000000 O
   O33        1.0     0.635258      0.656166      1.007390     Biso  1.000000 O
   O34        1.0     0.637756      0.164789      0.507388     Biso  1.000000 O
   O35        1.0     0.659623      0.631798      0.507388     Biso  1.000000 O
   O36        1.0     0.662121      0.140420      1.007390     Biso  1.000000 O
   O37        1.0     0.747769      0.788956      0.737316     Biso  1.000000 O
   O38        1.0     0.748448      0.502232      0.232890     Biso  1.000000 O
   O39        1.0     0.752221      0.299529      0.747906     Biso  1.000000 O
   O40        1.0     0.752400     -0.001791      0.281886     Biso  1.000000 O
   O41        1.0     0.791887      0.051422      0.718113     Biso  1.000000 O
   O42        1.0     0.792766      0.744674      0.252093     Biso  1.000000 O
   O43        1.0     0.796539      0.541971      0.767109     Biso  1.000000 O
   O44        1.0     0.797218      0.255247      0.262683     Biso  1.000000 O
   O45        1.0     0.882865      0.903783      0.992611     Biso  1.000000 O
   O46        1.0     0.885364      0.412405      0.492611     Biso  1.000000 O
   O47        1.0     0.907230      0.879415      0.492611     Biso  1.000000 O
   O48        1.0     0.909721      0.388038      0.992611     Biso  1.000000 O
