#======================================================================

# CRYSTAL DATA

#----------------------------------------------------------------------

data_VESTA_phase_1


_chemical_name_common                  ''
_cell_length_a                         10.54600
_cell_length_b                         10.53730
_cell_length_c                         7.77543
_cell_angle_alpha                      90
_cell_angle_beta                       90
_cell_angle_gamma                      90
_space_group_name_H-M_alt              'P 1'
_space_group_IT_number                 1

loop_
_space_group_symop_operation_xyz
   'x, y, z'

loop_
   _atom_site_label
   _atom_site_occupancy
   _atom_site_fract_x
   _atom_site_fract_y
   _atom_site_fract_z
   _atom_site_adp_type
   _atom_site_B_iso_or_equiv
   _atom_site_type_symbol
   W1         1.0     0.136118      0.399863      0.715278     Biso  1.000000 W
   W2         1.0     0.148195      0.905820      0.230744     Biso  1.000000 W
   W3         1.0     0.149851      0.386826      0.230744     Biso  1.000000 W
   W4         1.0     0.161590      0.891684      0.715278     Biso  1.000000 W
   W5         1.0     0.388513      0.646502      0.283301     Biso  1.000000 W
   W6         1.0     0.398854      0.162998      0.767835     Biso  1.000000 W
   W7         1.0     0.401908      0.632367      0.767835     Biso  1.000000 W
   W8         1.0     0.412595      0.149962      0.283301     Biso  1.000000 W
   W9         1.0     0.635478      0.893417      0.715278     Biso  1.000000 W
   W10        1.0     0.646166      0.411012      0.230744     Biso  1.000000 W
   W11        1.0     0.649219      0.880381      0.230744     Biso  1.000000 W
   W12        1.0     0.659561      0.396876      0.715278     Biso  1.000000 W
   W13        1.0     0.882499      0.152411      0.280504     Biso  1.000000 W
   W14        1.0     0.894559      0.138012      0.771439     Biso  1.000000 W
   W15        1.0     0.895277      0.657033      0.773129     Biso  1.000000 W
   W16        1.0     0.908252      0.644347      0.280327     Biso  1.000000 W
   O1         1.0    -0.002840      0.294152      0.737196     Biso  1.000000 O
   O2         1.0    -0.001801      0.002858      0.228525     Biso  1.000000 O
   O3         1.0     0.002656      0.498183      0.279830     Biso  1.000000 O
   O4         1.0     0.002677      0.794936      0.753136     Biso  1.000000 O
   O5         1.0     0.044901      0.250532      0.251735     Biso  1.000000 O
   O6         1.0     0.045429      0.546191      0.717093     Biso  1.000000 O
   O7         1.0     0.048667      0.047989      0.766020     Biso  1.000000 O
   O8         1.0     0.050742      0.749853      0.262310     Biso  1.000000 O
   O9         1.0     0.134833      0.409515      0.991912     Biso  1.000000 O
   O10        1.0     0.138716      0.906888      0.491912     Biso  1.000000 O
   O11        1.0     0.159151      0.385166      0.491912     Biso  1.000000 O
   O12        1.0     0.163034      0.882539      0.991912     Biso  1.000000 O
   O13        1.0     0.249845      0.542095      0.262310     Biso  1.000000 O
   O14        1.0     0.250164      0.254454      0.766020     Biso  1.000000 O
   O15        1.0     0.254304      0.053077      0.251735     Biso  1.000000 O
   O16        1.0     0.254842      0.744726      0.717093     Biso  1.000000 O
   O17        1.0     0.296974      0.496120      0.746844     Biso  1.000000 O
   O18        1.0     0.297826      0.792834      0.281486     Biso  1.000000 O
   O19        1.0     0.301106      0.294744      0.232559     Biso  1.000000 O
   O20        1.0     0.302124      0.001284      0.736269     Biso  1.000000 O
   O21        1.0     0.387069      0.655648      1.006670     Biso  1.000000 O
   O22        1.0     0.389562      0.164659      0.506667     Biso  1.000000 O
   O23        1.0     0.411386      0.631300      0.506667     Biso  1.000000 O
   O24        1.0     0.413880      0.140309      1.006670     Biso  1.000000 O
   O25        1.0     0.499360      0.788333      0.736269     Biso  1.000000 O
   O26        1.0     0.500039      0.501835      0.232559     Biso  1.000000 O
   O27        1.0     0.503804      0.299292      0.746844     Biso  1.000000 O
   O28        1.0     0.503983     -0.002184      0.281486     Biso  1.000000 O
   O29        1.0     0.543392      0.051382      0.717093     Biso  1.000000 O
   O30        1.0     0.544270      0.744086      0.251735     Biso  1.000000 O
   O31        1.0     0.548035      0.541543      0.766020     Biso  1.000000 O
   O32        1.0     0.548713      0.255045      0.262310     Biso  1.000000 O
   O33        1.0     0.634194      0.903069      0.991912     Biso  1.000000 O
   O34        1.0     0.636687      0.412080      0.491912     Biso  1.000000 O
   O35        1.0     0.658511      0.878720      0.491912     Biso  1.000000 O
   O36        1.0     0.660997      0.387731      0.991912     Biso  1.000000 O
   O37        1.0     0.745252      0.047913      0.262310     Biso  1.000000 O
   O38        1.0     0.746968      0.748635      0.766020     Biso  1.000000 O
   O39        1.0     0.750248      0.250544      0.717093     Biso  1.000000 O
   O40        1.0     0.751100      0.547259      0.251735     Biso  1.000000 O
   O41        1.0     0.790506     -0.003253      0.746844     Biso  1.000000 O
   O42        1.0     0.790667      0.299280      0.281486     Biso  1.000000 O
   O43        1.0     0.795345      0.789552      0.232559     Biso  1.000000 O
   O44        1.0     0.795664      0.501912      0.736269     Biso  1.000000 O
   O45        1.0     0.878843      0.161929      1.006070     Biso  1.000000 O
   O46        1.0     0.889942      0.661701      0.507304     Biso  1.000000 O
   O47        1.0     0.905298      0.633052      1.008090     Biso  1.000000 O
   O48        1.0     0.907923      0.135795      0.506507     Biso  1.000000 O
