#======================================================================

# CRYSTAL DATA

#----------------------------------------------------------------------

data_VESTA_phase_1


_chemical_name_common                  ''
_cell_length_a                         10.50980
_cell_length_b                         10.53730
_cell_length_c                         7.77985
_cell_angle_alpha                      90
_cell_angle_beta                       90
_cell_angle_gamma                      90
_space_group_name_H-M_alt              'P 1'
_space_group_IT_number                 1

loop_
_space_group_symop_operation_xyz
   'x, y, z'

loop_
   _atom_site_label
   _atom_site_occupancy
   _atom_site_fract_x
   _atom_site_fract_y
   _atom_site_fract_z
   _atom_site_adp_type
   _atom_site_B_iso_or_equiv
   _atom_site_type_symbol
   W1         1.0     0.139146      0.646502      0.283707     Biso  1.000000 W
   W2         1.0     0.149523      0.162998      0.767967     Biso  1.000000 W
   W3         1.0     0.152587      0.632367      0.767967     Biso  1.000000 W
   W4         1.0     0.163311      0.149962      0.283707     Biso  1.000000 W
   W5         1.0     0.386962      0.893417      0.715440     Biso  1.000000 W
   W6         1.0     0.397687      0.411012      0.231180     Biso  1.000000 W
   W7         1.0     0.400751      0.880381      0.231180     Biso  1.000000 W
   W8         1.0     0.411128      0.396876      0.715440     Biso  1.000000 W
   W9         1.0     0.634835      0.152411      0.280913     Biso  1.000000 W
   W10        1.0     0.646936      0.138012      0.771568     Biso  1.000000 W
   W11        1.0     0.647657      0.657033      0.773258     Biso  1.000000 W
   W12        1.0     0.660677      0.644347      0.280735     Biso  1.000000 W
   W13        1.0     0.886365      0.397136      0.718846     Biso  1.000000 W
   W14        1.0     0.894392      0.907738      0.227182     Biso  1.000000 W
   W15        1.0     0.899549      0.387117      0.226713     Biso  1.000000 W
   W16        1.0     0.907137      0.896035      0.717687     Biso  1.000000 W
   O1         1.0    -0.001319      0.543380      0.257987     Biso  1.000000 O
   O2         1.0    -0.000409      0.253840      0.765780     Biso  1.000000 O
   O3         1.0     0.002237      0.052850      0.257081     Biso  1.000000 O
   O4         1.0     0.002196      0.746126      0.718894     Biso  1.000000 O
   O5         1.0     0.047291      0.496120      0.746988     Biso  1.000000 O
   O6         1.0     0.048146      0.792834      0.281893     Biso  1.000000 O
   O7         1.0     0.051438      0.294744      0.232994     Biso  1.000000 O
   O8         1.0     0.052459      0.001284      0.736419     Biso  1.000000 O
   O9         1.0     0.137696      0.655648      1.006950     Biso  1.000000 O
   O10        1.0     0.140199      0.164659      0.506947     Biso  1.000000 O
   O11        1.0     0.162098      0.631300      0.506947     Biso  1.000000 O
   O12        1.0     0.164600      0.140309      1.006950     Biso  1.000000 O
   O13        1.0     0.250375      0.788333      0.736419     Biso  1.000000 O
   O14        1.0     0.251056      0.501835      0.232994     Biso  1.000000 O
   O15        1.0     0.254834      0.299292      0.746988     Biso  1.000000 O
   O16        1.0     0.255013     -0.002184      0.281893     Biso  1.000000 O
   O17        1.0     0.294559      0.051382      0.717254     Biso  1.000000 O
   O18        1.0     0.295440      0.744086      0.252159     Biso  1.000000 O
   O19        1.0     0.299218      0.541543      0.766153     Biso  1.000000 O
   O20        1.0     0.299898      0.255045      0.262728     Biso  1.000000 O
   O21        1.0     0.385673      0.903069      0.992200     Biso  1.000000 O
   O22        1.0     0.388176      0.412080      0.492200     Biso  1.000000 O
   O23        1.0     0.410074      0.878720      0.492200     Biso  1.000000 O
   O24        1.0     0.412569      0.387731      0.992200     Biso  1.000000 O
   O25        1.0     0.497114      0.047913      0.262728     Biso  1.000000 O
   O26        1.0     0.498836      0.748635      0.766153     Biso  1.000000 O
   O27        1.0     0.502128      0.250544      0.717254     Biso  1.000000 O
   O28        1.0     0.502983      0.547259      0.252159     Biso  1.000000 O
   O29        1.0     0.542525     -0.003253      0.746988     Biso  1.000000 O
   O30        1.0     0.542686      0.299280      0.281893     Biso  1.000000 O
   O31        1.0     0.547380      0.789552      0.232994     Biso  1.000000 O
   O32        1.0     0.547700      0.501912      0.736419     Biso  1.000000 O
   O33        1.0     0.631166      0.161929      1.006350     Biso  1.000000 O
   O34        1.0     0.642303      0.661701      0.507584     Biso  1.000000 O
   O35        1.0     0.657712      0.633052      1.008370     Biso  1.000000 O
   O36        1.0     0.660346      0.135795      0.506787     Biso  1.000000 O
   O37        1.0     0.747042      0.293523      0.738272     Biso  1.000000 O
   O38        1.0     0.747745      0.003253      0.224931     Biso  1.000000 O
   O39        1.0     0.752251      0.795771      0.759564     Biso  1.000000 O
   O40        1.0     0.752741      0.497924      0.278583     Biso  1.000000 O
   O41        1.0     0.793092      0.545468      0.724119     Biso  1.000000 O
   O42        1.0     0.793223      0.249786      0.248888     Biso  1.000000 O
   O43        1.0     0.795516      0.046391      0.772271     Biso  1.000000 O
   O44        1.0     0.798047      0.750837      0.251284     Biso  1.000000 O
   O45        1.0     0.878270      0.905888      0.492123     Biso  1.000000 O
   O46        1.0     0.883298      0.406399      0.991633     Biso  1.000000 O
   O47        1.0     0.909412      0.387269      0.491599     Biso  1.000000 O
   O48        1.0     0.917061      0.890178      0.992706     Biso  1.000000 O
